************************************************************************
* auCdl Netlist:
* 
* Library Name:  ETROC2_TDCWrap
* Top Cell Name: ETROC2_TDC
* View Name:     schematic
* Netlisted on:  Jun 17 16:47:56 2022
************************************************************************

.INCLUDE  /usr/local/TSMCPDK/TSMC65/V1.7A_1/1p9m6x1z1u/tsmcN65/../PVS_QRC/lvs/source.added
*.EQUATION
*.SCALE METER
*.MEGA
.PARAM



************************************************************************
* Library Name: ETROC1_TDC1
* Cell Name:    ABuf_momMOSCap
* View Name:    schematic
************************************************************************

.SUBCKT ABuf_momMOSCap vHigh vLow
*.PININFO vHigh:B vLow:B
MM0 vLow vHigh vLow vLow nch_25 l=500n w=510.0n m=32
MM1 vLow vHigh vLow vLow nch_25 l=280.0n w=510.0n m=16
.ENDS

************************************************************************
* Library Name: ETROC1_TDC1
* Cell Name:    CKBD2_LVT_ELT
* View Name:    schematic
************************************************************************

.SUBCKT CKBD2_LVT_ELT I VDD VSS Z
*.PININFO I:I Z:O VDD:B VSS:B
MM2_ELT Z net11 VDD VDD pch_lvt l=60n w=3.74u m=1
MM14_ELT Z net11 VDD VDD pch_lvt l=60n w=3.74u m=1
MM13_ELT net11 I VDD VDD pch_lvt l=60n w=3.74u m=1
MM1_ELT Z net11 VSS VSS nch_lvt l=60n w=1.42u m=1
MM15_ELT Z net11 VSS VSS nch_lvt l=60n w=1.42u m=1
MM12_ELT net11 I VSS VSS nch_lvt l=60n w=1.42u m=1
.ENDS

************************************************************************
* Library Name: ETROC1_TDC1
* Cell Name:    TIEH_LVT_ELT
* View Name:    schematic
************************************************************************

.SUBCKT TIEH_LVT_ELT VDD VSS ZN
*.PININFO ZN:O VDD:B VSS:B
MM1_ELT ZN net5 VDD VDD pch_lvt l=60n w=3.74u m=1
MM0_ELT net5 net5 VSS VSS nch_lvt l=60n w=1.42u m=1
.ENDS

************************************************************************
* Library Name: ETROC1_TDC1
* Cell Name:    DFCNQD1_LVT_ELT_1P42_Nonet
* View Name:    schematic
************************************************************************

.SUBCKT DFCNQD1_LVT_ELT_1P42_Nonet CDN CP D Q VDD VSS
*.PININFO CDN:I CP:I D:I Q:O VDD:B VSS:B
MM6 net68 CPNN net299 VSS nch_lvt l=60n w=1.42u m=1
MM7_ELT net5 net67 VSS VSS nch_lvt l=60n w=1.42u m=1
MM13_ELT net25 CDN VSS VSS nch_lvt l=60n w=1.42u m=1
MM12_ELT net29 net5 net25 VSS nch_lvt l=60n w=1.42u m=1
MM0 net200 CDN VSS VSS nch_lvt l=60n w=1.42u m=1
MM11_ELT net67 CPN net29 VSS nch_lvt l=60n w=1.42u m=1
MM4 net299 Q net255 VSS nch_lvt l=60n w=1.42u m=1
MM5 net68 CPN net177 VSS nch_lvt l=60n w=1.42u m=1
MM2 Q net68 VSS VSS nch_lvt l=60n w=1.42u m=1
MM16_ELT net67 CPNN net17 VSS nch_lvt l=60n w=1.42u m=1
MM29_ELT CPNN CP VSS VSS nch_lvt l=60n w=1.42u m=1
MM0_ELT CPN CPNN VSS VSS nch_lvt l=60n w=1.42u m=1
MM17_ELT net17 D net20 VSS nch_lvt l=60n w=1.42u m=1
MM18_ELT net20 CDN VSS VSS nch_lvt l=60n w=1.42u m=1
MM1 net255 CDN VSS VSS nch_lvt l=60n w=1.42u m=1
MM3 net177 net5 net200 VSS nch_lvt l=60n w=1.42u m=1
MM12 net722 Q VDD VDD pch_lvt l=60n w=1.42u m=1
MM11 net68 CDN VDD VDD pch_lvt l=60n w=1.42u m=1
MM10 net499 net5 VDD VDD pch_lvt l=60n w=1.42u m=1
MM9 Q net68 VDD VDD pch_lvt l=60n w=3.74u m=1
MM1_ELT CPN CPNN VDD VDD pch_lvt l=60n w=3.74u m=1
MM28_ELT CPNN CP VDD VDD pch_lvt l=60n w=3.74u m=1
MM15_ELT net67 CPN net49 VDD pch_lvt l=60n w=1.42u m=1
MM6_ELT net5 net67 VDD VDD pch_lvt l=60n w=1.42u m=1
MM8_ELT net67 CDN VDD VDD pch_lvt l=60n w=1.42u m=1
MM9_ELT net72 net5 VDD VDD pch_lvt l=60n w=1.42u m=1
MM8 net68 CPN net722 VDD pch_lvt l=60n w=1.42u m=1
MM7 net68 CPNN net499 VDD pch_lvt l=60n w=1.42u m=1
MM10_ELT net67 CPNN net72 VDD pch_lvt l=60n w=1.42u m=1
MM14_ELT net49 D VDD VDD pch_lvt l=60n w=1.42u m=1
.ENDS

************************************************************************
* Library Name: ETROC1_TDC1
* Cell Name:    TOA_Latch_31Tap
* View Name:    schematic
************************************************************************

.SUBCKT TOA_Latch_31Tap CA31_Bar_Din<0> CA31_Bar_Din<1> CA31_Bar_Din<2> 
+ CA31_Bar_Dout<0> CA31_Bar_Dout<1> CA31_Bar_Dout<2> CA31_Din<0> CA31_Din<1> 
+ CA31_Din<2> CA31_Dout<0> CA31_Dout<1> CA31_Dout<2> TOA_Din<0> TOA_Din<1> 
+ TOA_Din<2> TOA_Din<3> TOA_Din<4> TOA_Din<5> TOA_Din<6> TOA_Din<7> TOA_Din<8> 
+ TOA_Din<9> TOA_Din<10> TOA_Din<11> TOA_Din<12> TOA_Din<13> TOA_Din<14> 
+ TOA_Din<15> TOA_Din<16> TOA_Din<17> TOA_Din<18> TOA_Din<19> TOA_Din<20> 
+ TOA_Din<21> TOA_Din<22> TOA_Din<23> TOA_Din<24> TOA_Din<25> TOA_Din<26> 
+ TOA_Din<27> TOA_Din<28> TOA_Din<29> TOA_Din<30> TOA_Din<31> TOA_Din<32> 
+ TOA_Din<33> TOA_Din<34> TOA_Din<35> TOA_Din<36> TOA_Din<37> TOA_Din<38> 
+ TOA_Din<39> TOA_Din<40> TOA_Din<41> TOA_Din<42> TOA_Din<43> TOA_Din<44> 
+ TOA_Din<45> TOA_Din<46> TOA_Din<47> TOA_Din<48> TOA_Din<49> TOA_Din<50> 
+ TOA_Din<51> TOA_Din<52> TOA_Din<53> TOA_Din<54> TOA_Din<55> TOA_Din<56> 
+ TOA_Din<57> TOA_Din<58> TOA_Din<59> TOA_Din<60> TOA_Din<61> TOA_Din<62> 
+ TOA_Dout<0> TOA_Dout<1> TOA_Dout<2> TOA_Dout<3> TOA_Dout<4> TOA_Dout<5> 
+ TOA_Dout<6> TOA_Dout<7> TOA_Dout<8> TOA_Dout<9> TOA_Dout<10> TOA_Dout<11> 
+ TOA_Dout<12> TOA_Dout<13> TOA_Dout<14> TOA_Dout<15> TOA_Dout<16> 
+ TOA_Dout<17> TOA_Dout<18> TOA_Dout<19> TOA_Dout<20> TOA_Dout<21> 
+ TOA_Dout<22> TOA_Dout<23> TOA_Dout<24> TOA_Dout<25> TOA_Dout<26> 
+ TOA_Dout<27> TOA_Dout<28> TOA_Dout<29> TOA_Dout<30> TOA_Dout<31> 
+ TOA_Dout<32> TOA_Dout<33> TOA_Dout<34> TOA_Dout<35> TOA_Dout<36> 
+ TOA_Dout<37> TOA_Dout<38> TOA_Dout<39> TOA_Dout<40> TOA_Dout<41> 
+ TOA_Dout<42> TOA_Dout<43> TOA_Dout<44> TOA_Dout<45> TOA_Dout<46> 
+ TOA_Dout<47> TOA_Dout<48> TOA_Dout<49> TOA_Dout<50> TOA_Dout<51> 
+ TOA_Dout<52> TOA_Dout<53> TOA_Dout<54> TOA_Dout<55> TOA_Dout<56> 
+ TOA_Dout<57> TOA_Dout<58> TOA_Dout<59> TOA_Dout<60> TOA_Dout<61> 
+ TOA_Dout<62> TOA_LCK vdd vss
*.PININFO CA31_Bar_Din<0>:I CA31_Bar_Din<1>:I CA31_Bar_Din<2>:I CA31_Din<0>:I 
*.PININFO CA31_Din<1>:I CA31_Din<2>:I TOA_Din<0>:I TOA_Din<1>:I TOA_Din<2>:I 
*.PININFO TOA_Din<3>:I TOA_Din<4>:I TOA_Din<5>:I TOA_Din<6>:I TOA_Din<7>:I 
*.PININFO TOA_Din<8>:I TOA_Din<9>:I TOA_Din<10>:I TOA_Din<11>:I TOA_Din<12>:I 
*.PININFO TOA_Din<13>:I TOA_Din<14>:I TOA_Din<15>:I TOA_Din<16>:I 
*.PININFO TOA_Din<17>:I TOA_Din<18>:I TOA_Din<19>:I TOA_Din<20>:I 
*.PININFO TOA_Din<21>:I TOA_Din<22>:I TOA_Din<23>:I TOA_Din<24>:I 
*.PININFO TOA_Din<25>:I TOA_Din<26>:I TOA_Din<27>:I TOA_Din<28>:I 
*.PININFO TOA_Din<29>:I TOA_Din<30>:I TOA_Din<31>:I TOA_Din<32>:I 
*.PININFO TOA_Din<33>:I TOA_Din<34>:I TOA_Din<35>:I TOA_Din<36>:I 
*.PININFO TOA_Din<37>:I TOA_Din<38>:I TOA_Din<39>:I TOA_Din<40>:I 
*.PININFO TOA_Din<41>:I TOA_Din<42>:I TOA_Din<43>:I TOA_Din<44>:I 
*.PININFO TOA_Din<45>:I TOA_Din<46>:I TOA_Din<47>:I TOA_Din<48>:I 
*.PININFO TOA_Din<49>:I TOA_Din<50>:I TOA_Din<51>:I TOA_Din<52>:I 
*.PININFO TOA_Din<53>:I TOA_Din<54>:I TOA_Din<55>:I TOA_Din<56>:I 
*.PININFO TOA_Din<57>:I TOA_Din<58>:I TOA_Din<59>:I TOA_Din<60>:I 
*.PININFO TOA_Din<61>:I TOA_Din<62>:I TOA_LCK:I CA31_Bar_Dout<0>:O 
*.PININFO CA31_Bar_Dout<1>:O CA31_Bar_Dout<2>:O CA31_Dout<0>:O CA31_Dout<1>:O 
*.PININFO CA31_Dout<2>:O TOA_Dout<0>:O TOA_Dout<1>:O TOA_Dout<2>:O 
*.PININFO TOA_Dout<3>:O TOA_Dout<4>:O TOA_Dout<5>:O TOA_Dout<6>:O 
*.PININFO TOA_Dout<7>:O TOA_Dout<8>:O TOA_Dout<9>:O TOA_Dout<10>:O 
*.PININFO TOA_Dout<11>:O TOA_Dout<12>:O TOA_Dout<13>:O TOA_Dout<14>:O 
*.PININFO TOA_Dout<15>:O TOA_Dout<16>:O TOA_Dout<17>:O TOA_Dout<18>:O 
*.PININFO TOA_Dout<19>:O TOA_Dout<20>:O TOA_Dout<21>:O TOA_Dout<22>:O 
*.PININFO TOA_Dout<23>:O TOA_Dout<24>:O TOA_Dout<25>:O TOA_Dout<26>:O 
*.PININFO TOA_Dout<27>:O TOA_Dout<28>:O TOA_Dout<29>:O TOA_Dout<30>:O 
*.PININFO TOA_Dout<31>:O TOA_Dout<32>:O TOA_Dout<33>:O TOA_Dout<34>:O 
*.PININFO TOA_Dout<35>:O TOA_Dout<36>:O TOA_Dout<37>:O TOA_Dout<38>:O 
*.PININFO TOA_Dout<39>:O TOA_Dout<40>:O TOA_Dout<41>:O TOA_Dout<42>:O 
*.PININFO TOA_Dout<43>:O TOA_Dout<44>:O TOA_Dout<45>:O TOA_Dout<46>:O 
*.PININFO TOA_Dout<47>:O TOA_Dout<48>:O TOA_Dout<49>:O TOA_Dout<50>:O 
*.PININFO TOA_Dout<51>:O TOA_Dout<52>:O TOA_Dout<53>:O TOA_Dout<54>:O 
*.PININFO TOA_Dout<55>:O TOA_Dout<56>:O TOA_Dout<57>:O TOA_Dout<58>:O 
*.PININFO TOA_Dout<59>:O TOA_Dout<60>:O TOA_Dout<61>:O TOA_Dout<62>:O vdd:B 
*.PININFO vss:B
XI3 TOA_LCK vdd vss net1 / CKBD2_LVT_ELT
XI2<0> net1 vdd vss TOA_LCK1<0> / CKBD2_LVT_ELT
XI2<1> net1 vdd vss TOA_LCK1<1> / CKBD2_LVT_ELT
XI5 vdd vss VHigh2 / TIEH_LVT_ELT
XI4 vdd vss VHigh1 / TIEH_LVT_ELT
XI6<0> VHigh1 TOA_LCK1<0> CA31_Bar_Din<0> CA31_Bar_Dout<0> vdd vss / 
+ DFCNQD1_LVT_ELT_1P42_Nonet
XI6<1> VHigh1 TOA_LCK1<0> CA31_Bar_Din<1> CA31_Bar_Dout<1> vdd vss / 
+ DFCNQD1_LVT_ELT_1P42_Nonet
XI6<2> VHigh1 TOA_LCK1<0> CA31_Bar_Din<2> CA31_Bar_Dout<2> vdd vss / 
+ DFCNQD1_LVT_ELT_1P42_Nonet
XI0<0> VHigh1 TOA_LCK1<0> TOA_Din<0> TOA_Dout<0> vdd vss / 
+ DFCNQD1_LVT_ELT_1P42_Nonet
XI0<1> VHigh1 TOA_LCK1<0> TOA_Din<1> TOA_Dout<1> vdd vss / 
+ DFCNQD1_LVT_ELT_1P42_Nonet
XI0<2> VHigh1 TOA_LCK1<0> TOA_Din<2> TOA_Dout<2> vdd vss / 
+ DFCNQD1_LVT_ELT_1P42_Nonet
XI0<3> VHigh1 TOA_LCK1<0> TOA_Din<3> TOA_Dout<3> vdd vss / 
+ DFCNQD1_LVT_ELT_1P42_Nonet
XI0<4> VHigh1 TOA_LCK1<0> TOA_Din<4> TOA_Dout<4> vdd vss / 
+ DFCNQD1_LVT_ELT_1P42_Nonet
XI0<5> VHigh1 TOA_LCK1<0> TOA_Din<5> TOA_Dout<5> vdd vss / 
+ DFCNQD1_LVT_ELT_1P42_Nonet
XI0<6> VHigh1 TOA_LCK1<0> TOA_Din<6> TOA_Dout<6> vdd vss / 
+ DFCNQD1_LVT_ELT_1P42_Nonet
XI0<7> VHigh1 TOA_LCK1<0> TOA_Din<7> TOA_Dout<7> vdd vss / 
+ DFCNQD1_LVT_ELT_1P42_Nonet
XI0<8> VHigh1 TOA_LCK1<0> TOA_Din<8> TOA_Dout<8> vdd vss / 
+ DFCNQD1_LVT_ELT_1P42_Nonet
XI0<9> VHigh1 TOA_LCK1<0> TOA_Din<9> TOA_Dout<9> vdd vss / 
+ DFCNQD1_LVT_ELT_1P42_Nonet
XI0<10> VHigh1 TOA_LCK1<0> TOA_Din<10> TOA_Dout<10> vdd vss / 
+ DFCNQD1_LVT_ELT_1P42_Nonet
XI0<11> VHigh1 TOA_LCK1<0> TOA_Din<11> TOA_Dout<11> vdd vss / 
+ DFCNQD1_LVT_ELT_1P42_Nonet
XI0<12> VHigh1 TOA_LCK1<0> TOA_Din<12> TOA_Dout<12> vdd vss / 
+ DFCNQD1_LVT_ELT_1P42_Nonet
XI0<13> VHigh1 TOA_LCK1<0> TOA_Din<13> TOA_Dout<13> vdd vss / 
+ DFCNQD1_LVT_ELT_1P42_Nonet
XI0<14> VHigh1 TOA_LCK1<0> TOA_Din<14> TOA_Dout<14> vdd vss / 
+ DFCNQD1_LVT_ELT_1P42_Nonet
XI0<15> VHigh1 TOA_LCK1<0> TOA_Din<15> TOA_Dout<15> vdd vss / 
+ DFCNQD1_LVT_ELT_1P42_Nonet
XI0<16> VHigh1 TOA_LCK1<0> TOA_Din<16> TOA_Dout<16> vdd vss / 
+ DFCNQD1_LVT_ELT_1P42_Nonet
XI0<17> VHigh1 TOA_LCK1<0> TOA_Din<17> TOA_Dout<17> vdd vss / 
+ DFCNQD1_LVT_ELT_1P42_Nonet
XI0<18> VHigh1 TOA_LCK1<0> TOA_Din<18> TOA_Dout<18> vdd vss / 
+ DFCNQD1_LVT_ELT_1P42_Nonet
XI0<19> VHigh1 TOA_LCK1<0> TOA_Din<19> TOA_Dout<19> vdd vss / 
+ DFCNQD1_LVT_ELT_1P42_Nonet
XI0<20> VHigh1 TOA_LCK1<0> TOA_Din<20> TOA_Dout<20> vdd vss / 
+ DFCNQD1_LVT_ELT_1P42_Nonet
XI0<21> VHigh1 TOA_LCK1<0> TOA_Din<21> TOA_Dout<21> vdd vss / 
+ DFCNQD1_LVT_ELT_1P42_Nonet
XI0<22> VHigh1 TOA_LCK1<0> TOA_Din<22> TOA_Dout<22> vdd vss / 
+ DFCNQD1_LVT_ELT_1P42_Nonet
XI0<23> VHigh1 TOA_LCK1<0> TOA_Din<23> TOA_Dout<23> vdd vss / 
+ DFCNQD1_LVT_ELT_1P42_Nonet
XI0<24> VHigh1 TOA_LCK1<0> TOA_Din<24> TOA_Dout<24> vdd vss / 
+ DFCNQD1_LVT_ELT_1P42_Nonet
XI0<25> VHigh1 TOA_LCK1<0> TOA_Din<25> TOA_Dout<25> vdd vss / 
+ DFCNQD1_LVT_ELT_1P42_Nonet
XI0<26> VHigh1 TOA_LCK1<0> TOA_Din<26> TOA_Dout<26> vdd vss / 
+ DFCNQD1_LVT_ELT_1P42_Nonet
XI0<27> VHigh1 TOA_LCK1<0> TOA_Din<27> TOA_Dout<27> vdd vss / 
+ DFCNQD1_LVT_ELT_1P42_Nonet
XI0<28> VHigh1 TOA_LCK1<0> TOA_Din<28> TOA_Dout<28> vdd vss / 
+ DFCNQD1_LVT_ELT_1P42_Nonet
XI0<29> VHigh1 TOA_LCK1<0> TOA_Din<29> TOA_Dout<29> vdd vss / 
+ DFCNQD1_LVT_ELT_1P42_Nonet
XI0<30> VHigh1 TOA_LCK1<0> TOA_Din<30> TOA_Dout<30> vdd vss / 
+ DFCNQD1_LVT_ELT_1P42_Nonet
XI0<31> VHigh1 TOA_LCK1<0> TOA_Din<31> TOA_Dout<31> vdd vss / 
+ DFCNQD1_LVT_ELT_1P42_Nonet
XI7<0> VHigh1 TOA_LCK1<0> CA31_Din<0> CA31_Dout<0> vdd vss / 
+ DFCNQD1_LVT_ELT_1P42_Nonet
XI7<1> VHigh1 TOA_LCK1<0> CA31_Din<1> CA31_Dout<1> vdd vss / 
+ DFCNQD1_LVT_ELT_1P42_Nonet
XI7<2> VHigh1 TOA_LCK1<0> CA31_Din<2> CA31_Dout<2> vdd vss / 
+ DFCNQD1_LVT_ELT_1P42_Nonet
XI1<0> VHigh2 TOA_LCK1<1> TOA_Din<32> TOA_Dout<32> vdd vss / 
+ DFCNQD1_LVT_ELT_1P42_Nonet
XI1<1> VHigh2 TOA_LCK1<1> TOA_Din<33> TOA_Dout<33> vdd vss / 
+ DFCNQD1_LVT_ELT_1P42_Nonet
XI1<2> VHigh2 TOA_LCK1<1> TOA_Din<34> TOA_Dout<34> vdd vss / 
+ DFCNQD1_LVT_ELT_1P42_Nonet
XI1<3> VHigh2 TOA_LCK1<1> TOA_Din<35> TOA_Dout<35> vdd vss / 
+ DFCNQD1_LVT_ELT_1P42_Nonet
XI1<4> VHigh2 TOA_LCK1<1> TOA_Din<36> TOA_Dout<36> vdd vss / 
+ DFCNQD1_LVT_ELT_1P42_Nonet
XI1<5> VHigh2 TOA_LCK1<1> TOA_Din<37> TOA_Dout<37> vdd vss / 
+ DFCNQD1_LVT_ELT_1P42_Nonet
XI1<6> VHigh2 TOA_LCK1<1> TOA_Din<38> TOA_Dout<38> vdd vss / 
+ DFCNQD1_LVT_ELT_1P42_Nonet
XI1<7> VHigh2 TOA_LCK1<1> TOA_Din<39> TOA_Dout<39> vdd vss / 
+ DFCNQD1_LVT_ELT_1P42_Nonet
XI1<8> VHigh2 TOA_LCK1<1> TOA_Din<40> TOA_Dout<40> vdd vss / 
+ DFCNQD1_LVT_ELT_1P42_Nonet
XI1<9> VHigh2 TOA_LCK1<1> TOA_Din<41> TOA_Dout<41> vdd vss / 
+ DFCNQD1_LVT_ELT_1P42_Nonet
XI1<10> VHigh2 TOA_LCK1<1> TOA_Din<42> TOA_Dout<42> vdd vss / 
+ DFCNQD1_LVT_ELT_1P42_Nonet
XI1<11> VHigh2 TOA_LCK1<1> TOA_Din<43> TOA_Dout<43> vdd vss / 
+ DFCNQD1_LVT_ELT_1P42_Nonet
XI1<12> VHigh2 TOA_LCK1<1> TOA_Din<44> TOA_Dout<44> vdd vss / 
+ DFCNQD1_LVT_ELT_1P42_Nonet
XI1<13> VHigh2 TOA_LCK1<1> TOA_Din<45> TOA_Dout<45> vdd vss / 
+ DFCNQD1_LVT_ELT_1P42_Nonet
XI1<14> VHigh2 TOA_LCK1<1> TOA_Din<46> TOA_Dout<46> vdd vss / 
+ DFCNQD1_LVT_ELT_1P42_Nonet
XI1<15> VHigh2 TOA_LCK1<1> TOA_Din<47> TOA_Dout<47> vdd vss / 
+ DFCNQD1_LVT_ELT_1P42_Nonet
XI1<16> VHigh2 TOA_LCK1<1> TOA_Din<48> TOA_Dout<48> vdd vss / 
+ DFCNQD1_LVT_ELT_1P42_Nonet
XI1<17> VHigh2 TOA_LCK1<1> TOA_Din<49> TOA_Dout<49> vdd vss / 
+ DFCNQD1_LVT_ELT_1P42_Nonet
XI1<18> VHigh2 TOA_LCK1<1> TOA_Din<50> TOA_Dout<50> vdd vss / 
+ DFCNQD1_LVT_ELT_1P42_Nonet
XI1<19> VHigh2 TOA_LCK1<1> TOA_Din<51> TOA_Dout<51> vdd vss / 
+ DFCNQD1_LVT_ELT_1P42_Nonet
XI1<20> VHigh2 TOA_LCK1<1> TOA_Din<52> TOA_Dout<52> vdd vss / 
+ DFCNQD1_LVT_ELT_1P42_Nonet
XI1<21> VHigh2 TOA_LCK1<1> TOA_Din<53> TOA_Dout<53> vdd vss / 
+ DFCNQD1_LVT_ELT_1P42_Nonet
XI1<22> VHigh2 TOA_LCK1<1> TOA_Din<54> TOA_Dout<54> vdd vss / 
+ DFCNQD1_LVT_ELT_1P42_Nonet
XI1<23> VHigh2 TOA_LCK1<1> TOA_Din<55> TOA_Dout<55> vdd vss / 
+ DFCNQD1_LVT_ELT_1P42_Nonet
XI1<24> VHigh2 TOA_LCK1<1> TOA_Din<56> TOA_Dout<56> vdd vss / 
+ DFCNQD1_LVT_ELT_1P42_Nonet
XI1<25> VHigh2 TOA_LCK1<1> TOA_Din<57> TOA_Dout<57> vdd vss / 
+ DFCNQD1_LVT_ELT_1P42_Nonet
XI1<26> VHigh2 TOA_LCK1<1> TOA_Din<58> TOA_Dout<58> vdd vss / 
+ DFCNQD1_LVT_ELT_1P42_Nonet
XI1<27> VHigh2 TOA_LCK1<1> TOA_Din<59> TOA_Dout<59> vdd vss / 
+ DFCNQD1_LVT_ELT_1P42_Nonet
XI1<28> VHigh2 TOA_LCK1<1> TOA_Din<60> TOA_Dout<60> vdd vss / 
+ DFCNQD1_LVT_ELT_1P42_Nonet
XI1<29> VHigh2 TOA_LCK1<1> TOA_Din<61> TOA_Dout<61> vdd vss / 
+ DFCNQD1_LVT_ELT_1P42_Nonet
XI1<30> VHigh2 TOA_LCK1<1> TOA_Din<62> TOA_Dout<62> vdd vss / 
+ DFCNQD1_LVT_ELT_1P42_Nonet
.ENDS

************************************************************************
* Library Name: ETROC1_TDC1
* Cell Name:    INVD1_LVT_ELT
* View Name:    schematic
************************************************************************

.SUBCKT INVD1_LVT_ELT I VDD VSS ZN
*.PININFO I:I ZN:O VDD:B VSS:B
MM1_ELT ZN I VDD VDD pch_lvt l=60n w=3.74u m=1
MM0_ELT ZN I VSS VSS nch_lvt l=60n w=1.42u m=1
.ENDS

************************************************************************
* Library Name: ETROC1_TDC1
* Cell Name:    DFCNQD1_LVT_ELT_Nonet_20190226
* View Name:    schematic
************************************************************************

.SUBCKT DFCNQD1_LVT_ELT_Nonet_20190226 CDN CP D Q VDD VSS
*.PININFO CDN:I CP:I D:I Q:O VDD:B VSS:B
MM12 net722 Q VDD VDD pch_lvt l=60n w=1.42u m=1
MM11 net68 CDN VDD VDD pch_lvt l=60n w=1.42u m=1
MM10 net499 net5 VDD VDD pch_lvt l=60n w=1.42u m=1
MM9 Q net68 VDD VDD pch_lvt l=60n w=3.74u m=1
MM1_ELT CPN CPNN VDD VDD pch_lvt l=60n w=3.74u m=1
MM28_ELT CPNN CP VDD VDD pch_lvt l=60n w=3.74u m=1
MM15_ELT net67 CPN net49 VDD pch_lvt l=60n w=1.42u m=1
MM6_ELT net5 net67 VDD VDD pch_lvt l=60n w=1.42u m=1
MM8_ELT net67 CDN VDD VDD pch_lvt l=60n w=1.42u m=1
MM9_ELT net72 net5 VDD VDD pch_lvt l=60n w=1.42u m=1
MM8 net68 CPN net722 VDD pch_lvt l=60n w=1.42u m=1
MM7 net68 CPNN net499 VDD pch_lvt l=60n w=1.42u m=1
MM10_ELT net67 CPNN net72 VDD pch_lvt l=60n w=1.42u m=1
MM14_ELT net49 D VDD VDD pch_lvt l=60n w=1.42u m=1
MM6 net68 CPNN net299 VSS nch_lvt l=60n w=1.42u m=1
MM7_ELT net5 net67 VSS VSS nch_lvt l=60n w=1.42u m=1
MM13_ELT net25 CDN VSS VSS nch_lvt l=60n w=1.42u m=1
MM12_ELT net29 net5 net25 VSS nch_lvt l=60n w=1.42u m=1
MM0 net200 CDN VSS VSS nch_lvt l=60n w=1.42u m=1
MM11_ELT net67 CPN net29 VSS nch_lvt l=60n w=1.42u m=1
MM4 net299 Q net255 VSS nch_lvt l=60n w=1.42u m=1
MM5 net68 CPN net177 VSS nch_lvt l=60n w=1.42u m=1
MM2 Q net68 VSS VSS nch_lvt l=60n w=1.42u m=1
MM16_ELT net67 CPNN net17 VSS nch_lvt l=60n w=1.42u m=1
MM29_ELT CPNN CP VSS VSS nch_lvt l=60n w=1.42u m=1
MM0_ELT CPN CPNN VSS VSS nch_lvt l=60n w=1.42u m=1
MM17_ELT net17 D net20 VSS nch_lvt l=60n w=1.42u m=1
MM18_ELT net20 CDN VSS VSS nch_lvt l=60n w=1.42u m=1
MM1 net255 CDN VSS VSS nch_lvt l=60n w=1.42u m=1
MM3 net177 net5 net200 VSS nch_lvt l=60n w=1.42u m=1
.ENDS

************************************************************************
* Library Name: ETROC1_TDC1
* Cell Name:    Ripple_Counter_WithBuffer
* View Name:    schematic
************************************************************************

.SUBCKT Ripple_Counter_WithBuffer CA<0> CA<1> CA<2> CT<0> CT<1> CT<2> Qin 
+ TOARST_N TOA_CK TOTRST_N TOT_CK cnt<0> cnt<1> cnt<2> vdd vss
*.PININFO Qin:I TOARST_N:I TOA_CK:I TOTRST_N:I TOT_CK:I CA<0>:O CA<1>:O 
*.PININFO CA<2>:O CT<0>:O CT<1>:O CT<2>:O cnt<0>:O cnt<1>:O cnt<2>:O vdd:B 
*.PININFO vss:B
XI10 cnt<2> vdd vss net24 / INVD1_LVT_ELT
XI5 cnt<0> vdd vss net20 / INVD1_LVT_ELT
XI9 cnt<1> vdd vss net23 / INVD1_LVT_ELT
XI17 TOTRST_N TOT_CK cnt<0> CT<0> vdd vss / DFCNQD1_LVT_ELT_Nonet_20190226
XI16 TOTRST_N TOT_CK cnt<1> CT<1> vdd vss / DFCNQD1_LVT_ELT_Nonet_20190226
XI15 TOTRST_N TOT_CK cnt<2> CT<2> vdd vss / DFCNQD1_LVT_ELT_Nonet_20190226
XI14 TOARST_N TOA_CK cnt<2> CA<2> vdd vss / DFCNQD1_LVT_ELT_Nonet_20190226
XI13 TOARST_N TOA_CK cnt<1> CA<1> vdd vss / DFCNQD1_LVT_ELT_Nonet_20190226
XI12 TOARST_N TOA_CK cnt<0> CA<0> vdd vss / DFCNQD1_LVT_ELT_Nonet_20190226
XI11 TOTRST_N net23 net24 cnt<2> vdd vss / DFCNQD1_LVT_ELT_Nonet_20190226
XI8 TOTRST_N net20 net23 cnt<1> vdd vss / DFCNQD1_LVT_ELT_Nonet_20190226
XI3 TOTRST_N Qin net20 cnt<0> vdd vss / DFCNQD1_LVT_ELT_Nonet_20190226
.ENDS

************************************************************************
* Library Name: ETROC1_TDC1
* Cell Name:    DFCNQD1_LVT_ELT_1P42
* View Name:    schematic
************************************************************************

.SUBCKT DFCNQD1_LVT_ELT_1P42 CDN CP CPN D Q VDD VSS
*.PININFO CDN:I CP:I D:I CPN:O Q:O VDD:B VSS:B
MM6 net68 CPNN net299 VSS nch_lvt l=60n w=1.42u m=1
MM7_ELT net5 net67 VSS VSS nch_lvt l=60n w=1.42u m=1
MM13_ELT net25 CDN VSS VSS nch_lvt l=60n w=1.42u m=1
MM12_ELT net29 net5 net25 VSS nch_lvt l=60n w=1.42u m=1
MM0 net200 CDN VSS VSS nch_lvt l=60n w=1.42u m=1
MM11_ELT net67 CPN net29 VSS nch_lvt l=60n w=1.42u m=1
MM4 net299 Q net255 VSS nch_lvt l=60n w=1.42u m=1
MM5 net68 CPN net177 VSS nch_lvt l=60n w=1.42u m=1
MM2 Q net68 VSS VSS nch_lvt l=60n w=1.42u m=1
MM16_ELT net67 CPNN net17 VSS nch_lvt l=60n w=1.42u m=1
MM29_ELT CPNN CP VSS VSS nch_lvt l=60n w=1.42u m=1
MM0_ELT CPN CPNN VSS VSS nch_lvt l=60n w=1.42u m=1
MM17_ELT net17 D net20 VSS nch_lvt l=60n w=1.42u m=1
MM18_ELT net20 CDN VSS VSS nch_lvt l=60n w=1.42u m=1
MM1 net255 CDN VSS VSS nch_lvt l=60n w=1.42u m=1
MM3 net177 net5 net200 VSS nch_lvt l=60n w=1.42u m=1
MM12 net722 Q VDD VDD pch_lvt l=60n w=1.42u m=1
MM11 net68 CDN VDD VDD pch_lvt l=60n w=1.42u m=1
MM10 net499 net5 VDD VDD pch_lvt l=60n w=1.42u m=1
MM9 Q net68 VDD VDD pch_lvt l=60n w=3.74u m=1
MM1_ELT CPN CPNN VDD VDD pch_lvt l=60n w=3.74u m=1
MM28_ELT CPNN CP VDD VDD pch_lvt l=60n w=3.74u m=1
MM15_ELT net67 CPN net49 VDD pch_lvt l=60n w=1.42u m=1
MM6_ELT net5 net67 VDD VDD pch_lvt l=60n w=1.42u m=1
MM8_ELT net67 CDN VDD VDD pch_lvt l=60n w=1.42u m=1
MM9_ELT net72 net5 VDD VDD pch_lvt l=60n w=1.42u m=1
MM8 net68 CPN net722 VDD pch_lvt l=60n w=1.42u m=1
MM7 net68 CPNN net499 VDD pch_lvt l=60n w=1.42u m=1
MM10_ELT net67 CPNN net72 VDD pch_lvt l=60n w=1.42u m=1
MM14_ELT net49 D VDD VDD pch_lvt l=60n w=1.42u m=1
.ENDS

************************************************************************
* Library Name: ETROC1_TDC1
* Cell Name:    ND2D1_LVT_ELT_DelayCell_3P74
* View Name:    schematic
************************************************************************

.SUBCKT ND2D1_LVT_ELT_DelayCell_3P74 A1 A2 VDD VSS ZN
*.PININFO A1:I A2:I ZN:O VDD:B VSS:B
MM18 net016 A2 VSS VSS nch_lvt l=60n w=1.42u m=1
MM19 net016 A2 VSS VSS nch_lvt l=60n w=1.42u m=1
MM17 ZN A1 net016 VSS nch_lvt l=60n w=1.42u m=1
MM20 net016 A2 VSS VSS nch_lvt l=60n w=1.42u m=1
MM21 net016 A2 VSS VSS nch_lvt l=60n w=1.42u m=1
MM1_ELT net016 A2 VSS VSS nch_lvt l=60n w=1.42u m=1
MM22 net016 A2 VSS VSS nch_lvt l=60n w=1.42u m=1
MM23 net016 A2 VSS VSS nch_lvt l=60n w=1.42u m=1
MM2_ELT ZN A1 net016 VSS nch_lvt l=60n w=1.42u m=1
MM11_ELT ZN A2 VDD VDD pch_lvt l=60n w=1.42u m=1
MM10_ELT ZN A1 VDD VDD pch_lvt l=60n w=3.74u m=1
MM25 ZN A1 VDD VDD pch_lvt l=60n w=3.74u m=1
.ENDS

************************************************************************
* Library Name: ETROC1_TDC1
* Cell Name:    LHCNQD1_LVT_ELT
* View Name:    schematic
************************************************************************

.SUBCKT LHCNQD1_LVT_ELT CDN D E Q VDD VSS
*.PININFO CDN:I D:I E:I Q:O VDD:B VSS:B
MM14_ELT net49 D VDD VDD pch_lvt l=60n w=1.42u m=1
MM15_ELT net67 EN net49 VDD pch_lvt l=60n w=1.42u m=1
MM8_ELT net67 CDN VDD VDD pch_lvt l=60n w=1.42u m=1
MM9_ELT net72 Q VDD VDD pch_lvt l=60n w=1.42u m=1
MM10_ELT net67 ENN net72 VDD pch_lvt l=60n w=1.42u m=1
MM1_ELT EN E VDD VDD pch_lvt l=60n w=3.74u m=1
MM6_ELT Q net67 VDD VDD pch_lvt l=60n w=3.74u m=1
MM28_ELT ENN EN VDD VDD pch_lvt l=60n w=3.74u m=1
MM18_ELT net20 CDN VSS VSS nch_lvt l=60n w=1.42u m=1
MM16_ELT net67 ENN net17 VSS nch_lvt l=60n w=1.42u m=1
MM17_ELT net17 D net20 VSS nch_lvt l=60n w=1.42u m=1
MM11_ELT net67 EN net29 VSS nch_lvt l=60n w=1.42u m=1
MM13_ELT net25 CDN VSS VSS nch_lvt l=60n w=1.42u m=1
MM12_ELT net29 Q net25 VSS nch_lvt l=60n w=1.42u m=1
MM29_ELT ENN EN VSS VSS nch_lvt l=60n w=1.42u m=1
MM0_ELT EN E VSS VSS nch_lvt l=60n w=1.42u m=1
MM7_ELT Q net67 VSS VSS nch_lvt l=60n w=1.42u m=1
.ENDS

************************************************************************
* Library Name: ETROC1_TDC1
* Cell Name:    Single_Delay_Cell_NAND_3P74_DFF_1P42_LATCH
* View Name:    schematic
************************************************************************

.SUBCKT Single_Delay_Cell_NAND_3P74_DFF_1P42_LATCH A1 A2 CPN EN TOARST_N 
+ TOA_CK TOA_OUT TOTRST_N TOT_OUT ZN vdd vss
*.PININFO A1:I A2:I EN:I TOARST_N:I TOA_CK:I TOTRST_N:I CPN:O TOA_OUT:O 
*.PININFO TOT_OUT:O ZN:O vdd:B vss:B
XI8 TOARST_N TOA_CK CPN ZN TOA_OUT vdd vss / DFCNQD1_LVT_ELT_1P42
XI0 A1 A2 vdd vss ZN / ND2D1_LVT_ELT_DelayCell_3P74
XI21 TOTRST_N ZN EN TOT_OUT vdd vss / LHCNQD1_LVT_ELT
.ENDS

************************************************************************
* Library Name: ETROC1_TDC1
* Cell Name:    Single_Delay_Cell_NAND_3P74_DFF_1P42
* View Name:    schematic
************************************************************************

.SUBCKT Single_Delay_Cell_NAND_3P74_DFF_1P42 A1 A2 CPN TOARST_N TOA_CK TOA_OUT 
+ TOTRST_N TOT_CK TOT_D TOT_OUT ZN vdd vss
*.PININFO A1:I A2:I TOARST_N:I TOA_CK:I TOTRST_N:I TOT_CK:I TOT_D:I CPN:O 
*.PININFO TOA_OUT:O TOT_OUT:O ZN:O vdd:B vss:B
XI0 A1 A2 vdd vss ZN / ND2D1_LVT_ELT_DelayCell_3P74
XI8 TOARST_N TOA_CK CPN ZN TOA_OUT vdd vss / DFCNQD1_LVT_ELT_1P42
XI9 TOTRST_N TOT_CK net67 TOT_D TOT_OUT vdd vss / DFCNQD1_LVT_ELT_1P42
.ENDS

************************************************************************
* Library Name: ETROC1_TDC1
* Cell Name:    INVD2_LVT_ELT
* View Name:    schematic
************************************************************************

.SUBCKT INVD2_LVT_ELT I VDD VSS ZN
*.PININFO I:I ZN:O VDD:B VSS:B
MM0_ELT ZN I VSS VSS nch_lvt l=60n w=1.42u m=1
MM3_ELT ZN I VSS VSS nch_lvt l=60n w=1.42u m=1
MM2_ELT ZN I VDD VDD pch_lvt l=60n w=3.74u m=1
MM1_ELT ZN I VDD VDD pch_lvt l=60n w=3.74u m=1
.ENDS

************************************************************************
* Library Name: ETROC1_TDC1
* Cell Name:    INVD4_LVT_ELT
* View Name:    schematic
************************************************************************

.SUBCKT INVD4_LVT_ELT I VDD VSS ZN
*.PININFO I:I ZN:O VDD:B VSS:B
MM3_ELT ZN I VSS VSS nch_lvt l=60n w=1.42u m=1
MM2_ELT ZN I VSS VSS nch_lvt l=60n w=1.42u m=1
MM0_ELT ZN I VSS VSS nch_lvt l=60n w=1.42u m=1
MM7_ELT ZN I VSS VSS nch_lvt l=60n w=1.42u m=1
MM5_ELT ZN I VDD VDD pch_lvt l=60n w=3.74u m=1
MM4_ELT ZN I VDD VDD pch_lvt l=60n w=3.74u m=1
MM6_ELT ZN I VDD VDD pch_lvt l=60n w=3.74u m=1
MM1_ELT ZN I VDD VDD pch_lvt l=60n w=3.74u m=1
.ENDS

************************************************************************
* Library Name: ETROC1_TDC1
* Cell Name:    CKBD4_LVT_ELT
* View Name:    schematic
************************************************************************

.SUBCKT CKBD4_LVT_ELT I VDD VSS Z
*.PININFO I:I Z:O VDD:B VSS:B
MM7_ELT net11 I VSS VSS nch_lvt l=60n w=1.42u m=1
MM5_ELT Z net11 VSS VSS nch_lvt l=60n w=1.42u m=1
MM4_ELT Z net11 VSS VSS nch_lvt l=60n w=1.42u m=1
MM1_ELT Z net11 VSS VSS nch_lvt l=60n w=1.42u m=1
MM15_ELT Z net11 VSS VSS nch_lvt l=60n w=1.42u m=1
MM12_ELT net11 I VSS VSS nch_lvt l=60n w=1.42u m=1
MM8_ELT net11 I VDD VDD pch_lvt l=60n w=3.74u m=1
MM6_ELT Z net11 VDD VDD pch_lvt l=60n w=3.74u m=1
MM2_ELT Z net11 VDD VDD pch_lvt l=60n w=3.74u m=1
MM3_ELT Z net11 VDD VDD pch_lvt l=60n w=3.74u m=1
MM14_ELT Z net11 VDD VDD pch_lvt l=60n w=3.74u m=1
MM13_ELT net11 I VDD VDD pch_lvt l=60n w=3.74u m=1
.ENDS

************************************************************************
* Library Name: ETROC2_TDCWrap
* Cell Name:    Delay_LIne_63Cells_NAND_3P74_DFF_1P42_31RC_TDecode
* View Name:    schematic
************************************************************************

.SUBCKT Delay_LIne_63Cells_NAND_3P74_DFF_1P42_31RC_TDecode CA31<0> CA31<1> 
+ CA31<2> CA31_Bar<0> CA31_Bar<1> CA31_Bar<2> CPN<0> CPN<1> CPN<2> CPN<3> 
+ CPN<4> CPN<5> CPN<6> CPN<7> CPN<8> CPN<9> CPN<10> CPN<11> CPN<12> CPN<13> 
+ CPN<14> CPN<15> CPN<16> CPN<17> CPN<18> CPN<19> CPN<20> CPN<21> CPN<22> 
+ CPN<23> CPN<24> CPN<25> CPN<26> CPN<27> CPN<28> CPN<29> CPN<30> CPN<31> 
+ CPN<32> CPN<33> CPN<34> CPN<35> CPN<36> CPN<37> CPN<38> CPN<39> CPN<40> 
+ CPN<41> CPN<42> CPN<43> CPN<44> CPN<45> CPN<46> CPN<47> CPN<48> CPN<49> 
+ CPN<50> CPN<51> CPN<52> CPN<53> CPN<54> CPN<55> CPN<56> CPN<57> CPN<58> 
+ CPN<59> CPN<60> CPN<61> CPN<62> CPN<63> CT31<0> CT31<1> CT31<2> CT31_Bar<0> 
+ CT31_Bar<1> CT31_Bar<2> OUT<0> OUT<1> OUT<2> OUT<3> OUT<4> OUT<5> OUT<6> 
+ OUT<7> OUT<8> OUT<9> OUT<10> OUT<11> OUT<12> OUT<13> OUT<14> OUT<15> OUT<16> 
+ OUT<17> OUT<18> OUT<19> OUT<20> OUT<21> OUT<22> OUT<23> OUT<24> OUT<25> 
+ OUT<26> OUT<27> OUT<28> OUT<29> OUT<30> OUT<31> OUT<32> OUT<33> OUT<34> 
+ OUT<35> OUT<36> OUT<37> OUT<38> OUT<39> OUT<40> OUT<41> OUT<42> OUT<43> 
+ OUT<44> OUT<45> OUT<46> OUT<47> OUT<48> OUT<49> OUT<50> OUT<51> OUT<52> 
+ OUT<53> OUT<54> OUT<55> OUT<56> OUT<57> OUT<58> OUT<59> OUT<60> OUT<61> 
+ OUT<62> Start TOARST_N TOA_CK TOA_OUT<0> TOA_OUT<1> TOA_OUT<2> TOA_OUT<3> 
+ TOA_OUT<4> TOA_OUT<5> TOA_OUT<6> TOA_OUT<7> TOA_OUT<8> TOA_OUT<9> 
+ TOA_OUT<10> TOA_OUT<11> TOA_OUT<12> TOA_OUT<13> TOA_OUT<14> TOA_OUT<15> 
+ TOA_OUT<16> TOA_OUT<17> TOA_OUT<18> TOA_OUT<19> TOA_OUT<20> TOA_OUT<21> 
+ TOA_OUT<22> TOA_OUT<23> TOA_OUT<24> TOA_OUT<25> TOA_OUT<26> TOA_OUT<27> 
+ TOA_OUT<28> TOA_OUT<29> TOA_OUT<30> TOA_OUT<31> TOA_OUT<32> TOA_OUT<33> 
+ TOA_OUT<34> TOA_OUT<35> TOA_OUT<36> TOA_OUT<37> TOA_OUT<38> TOA_OUT<39> 
+ TOA_OUT<40> TOA_OUT<41> TOA_OUT<42> TOA_OUT<43> TOA_OUT<44> TOA_OUT<45> 
+ TOA_OUT<46> TOA_OUT<47> TOA_OUT<48> TOA_OUT<49> TOA_OUT<50> TOA_OUT<51> 
+ TOA_OUT<52> TOA_OUT<53> TOA_OUT<54> TOA_OUT<55> TOA_OUT<56> TOA_OUT<57> 
+ TOA_OUT<58> TOA_OUT<59> TOA_OUT<60> TOA_OUT<61> TOA_OUT<62> TOTRST_N TOT_CK 
+ TOT_OUT<0> TOT_OUT<2> TOT_OUT<4> TOT_OUT<6> TOT_OUT<8> TOT_OUT<10> 
+ TOT_OUT<12> TOT_OUT<14> TOT_OUT<16> TOT_OUT<18> TOT_OUT<20> TOT_OUT<22> 
+ TOT_OUT<24> TOT_OUT<26> TOT_OUT<28> TOT_OUT<30> TOT_OUT<32> TOT_OUT<34> 
+ TOT_OUT<36> TOT_OUT<38> TOT_OUT<40> TOT_OUT<42> TOT_OUT<44> TOT_OUT<46> 
+ TOT_OUT<48> TOT_OUT<50> TOT_OUT<52> TOT_OUT<54> TOT_OUT<56> TOT_OUT<58> 
+ TOT_OUT<60> TOT_OUT<62> cnt31<0> cnt31<1> cnt31<2> cnt31_Bar<0> cnt31_Bar<1> 
+ cnt31_Bar<2> vdd vss
*.PININFO Start:I TOARST_N:I TOA_CK:I TOTRST_N:I TOT_CK:I CA31<0>:O CA31<1>:O 
*.PININFO CA31<2>:O CA31_Bar<0>:O CA31_Bar<1>:O CA31_Bar<2>:O CPN<0>:O 
*.PININFO CPN<1>:O CPN<2>:O CPN<3>:O CPN<4>:O CPN<5>:O CPN<6>:O CPN<7>:O 
*.PININFO CPN<8>:O CPN<9>:O CPN<10>:O CPN<11>:O CPN<12>:O CPN<13>:O CPN<14>:O 
*.PININFO CPN<15>:O CPN<16>:O CPN<17>:O CPN<18>:O CPN<19>:O CPN<20>:O 
*.PININFO CPN<21>:O CPN<22>:O CPN<23>:O CPN<24>:O CPN<25>:O CPN<26>:O 
*.PININFO CPN<27>:O CPN<28>:O CPN<29>:O CPN<30>:O CPN<31>:O CPN<32>:O 
*.PININFO CPN<33>:O CPN<34>:O CPN<35>:O CPN<36>:O CPN<37>:O CPN<38>:O 
*.PININFO CPN<39>:O CPN<40>:O CPN<41>:O CPN<42>:O CPN<43>:O CPN<44>:O 
*.PININFO CPN<45>:O CPN<46>:O CPN<47>:O CPN<48>:O CPN<49>:O CPN<50>:O 
*.PININFO CPN<51>:O CPN<52>:O CPN<53>:O CPN<54>:O CPN<55>:O CPN<56>:O 
*.PININFO CPN<57>:O CPN<58>:O CPN<59>:O CPN<60>:O CPN<61>:O CPN<62>:O 
*.PININFO CPN<63>:O CT31<0>:O CT31<1>:O CT31<2>:O CT31_Bar<0>:O CT31_Bar<1>:O 
*.PININFO CT31_Bar<2>:O OUT<0>:O OUT<1>:O OUT<2>:O OUT<3>:O OUT<4>:O OUT<5>:O 
*.PININFO OUT<6>:O OUT<7>:O OUT<8>:O OUT<9>:O OUT<10>:O OUT<11>:O OUT<12>:O 
*.PININFO OUT<13>:O OUT<14>:O OUT<15>:O OUT<16>:O OUT<17>:O OUT<18>:O 
*.PININFO OUT<19>:O OUT<20>:O OUT<21>:O OUT<22>:O OUT<23>:O OUT<24>:O 
*.PININFO OUT<25>:O OUT<26>:O OUT<27>:O OUT<28>:O OUT<29>:O OUT<30>:O 