************************************************************************
* auCdl Netlist:
* 
* Library Name:  ETROC2_I2C_pixelDigitalV1
* Top Cell Name: pixelDigitalTMR
* View Name:     schematic
* Netlisted on:  Apr 21 22:36:31 2022
************************************************************************

*.INCLUDE  /asic/cad/Library/tsmc/TSMC65_CERN_2017_DL20/V1.7A_1/1p9m6x1z1u/tsmcN65/../PVS_QRC/lvs/source.added
*.EQUATION
*.SCALE METER
*.MEGA
.PARAM



************************************************************************
* Library Name: tcbn65lp
* Cell Name:    DCAP32
* View Name:    schematic
************************************************************************

.SUBCKT DCAP32 VDD VSS
*.PININFO VDD:B VSS:B
MMI38 VSS net11 VSS VSS nch l=975.00n w=300n m=1
MMI6 VSS net11 VSS VSS nch l=975.00n w=300n m=1
MMI39 VSS net11 VSS VSS nch l=975.00n w=300n m=1
MMI37 VSS net11 VSS VSS nch l=975.00n w=300n m=1
MM_u2 net5 net11 VSS VSS nch l=60n w=300n m=1
MMI36 VSS net11 VSS VSS nch l=975.00n w=300n m=1
MMI33 VDD net5 VDD VDD pch l=975.00n w=430.0n m=1
MM_u1 net11 net5 VDD VDD pch l=60n w=390.0n m=1
MMI34 VDD net5 VDD VDD pch l=975.00n w=430.0n m=1
MMI35 VDD net5 VDD VDD pch l=975.00n w=430.0n m=1
MMI32 VDD net5 VDD VDD pch l=975.00n w=430.0n m=1
MMI26 VDD net5 VDD VDD pch l=975.00n w=430.0n m=1
.ENDS

************************************************************************
* Library Name: tcbn65lp
* Cell Name:    DCAP16
* View Name:    schematic
************************************************************************

.SUBCKT DCAP16 VDD VSS
*.PININFO VDD:B VSS:B
MMI4 VSS net11 VSS VSS nch l=690.0n w=300n m=1
MMI8 VSS net11 VSS VSS nch l=690.0n w=300n m=1
MM_u2 net5 net11 VSS VSS nch l=60n w=300n m=1
MMI7 VSS net11 VSS VSS nch l=690.0n w=300n m=1
MMI3 VDD net5 VDD VDD pch l=690.0n w=430.0n m=1
MMI6 VDD net5 VDD VDD pch l=690.0n w=430.0n m=1
MM_u1 net11 net5 VDD VDD pch l=60n w=390.0n m=1
MMI5 VDD net5 VDD VDD pch l=690.0n w=430.0n m=1
.ENDS

************************************************************************
* Library Name: tcbn65lp
* Cell Name:    DCAP
* View Name:    schematic
************************************************************************

.SUBCKT DCAP VDD VSS
*.PININFO VDD:B VSS:B
MM_u2 net7 net5 VSS VSS nch l=60n w=345.00n m=1
MM_u1 net5 net7 VDD VDD pch l=60n w=485.00n m=1
.ENDS

************************************************************************
* Library Name: tcbn65lp
* Cell Name:    OD25DCAP64
* View Name:    schematic
************************************************************************

.SUBCKT OD25DCAP64 VDD VSS
*.PININFO VDD:B VSS:B
MMI3 VSS VDD VSS VSS nch_25 l=2.52u w=530.0n m=1
MMI4 VSS VDD VSS VSS nch_25 l=2.52u w=530.0n m=1
MMI2 VSS VDD VSS VSS nch_25 l=2.52u w=530.0n m=1
MM_u2 VSS VDD VSS VSS nch_25 l=2.52u w=530.0n m=1
.ENDS

************************************************************************
* Library Name: tcbn65lp
* Cell Name:    DCAP4
* View Name:    schematic
************************************************************************

.SUBCKT DCAP4 VDD VSS
*.PININFO VDD:B VSS:B
MMI4 VSS net9 VSS VSS nch l=80n w=330.0n m=1
MM_u2 net11 net9 VSS VSS nch l=60n w=330.0n m=1
MMI3 VDD net11 VDD VDD pch l=80n w=460.0n m=1
MM_u1 net9 net11 VDD VDD pch l=60n w=460.0n m=1
.ENDS

************************************************************************
* Library Name: tcbn65lp
* Cell Name:    OD25DCAP16
* View Name:    schematic
************************************************************************

.SUBCKT OD25DCAP16 VDD VSS
*.PININFO VDD:B VSS:B
MM_u2 VSS VDD VSS VSS nch_25 l=1.41u w=530.0n m=1
.ENDS

************************************************************************
* Library Name: tcbn65lp
* Cell Name:    DCAP8
* View Name:    schematic
************************************************************************

.SUBCKT DCAP8 VDD VSS
*.PININFO VDD:B VSS:B
MMI4 VSS net9 VSS VSS nch l=880.0n w=300n m=1
MM_u2 net11 net9 VSS VSS nch l=60n w=300n m=1
MMI3 VDD net11 VDD VDD pch l=880.0n w=430.0n m=1
MM_u1 net9 net11 VDD VDD pch l=60n w=390.0n m=1
.ENDS

************************************************************************
* Library Name: tcbn65lp
* Cell Name:    DCAP64
* View Name:    schematic
************************************************************************

.SUBCKT DCAP64 VDD VSS
*.PININFO VDD:B VSS:B
MMI54 VDD net11 VDD VDD pch l=915.00n w=430.0n m=1
MM_u1 net67 net11 VDD VDD pch l=60n w=390.0n m=1
MMI56 VDD net11 VDD VDD pch l=915.00n w=430.0n m=1
MMI55 VDD net11 VDD VDD pch l=915.00n w=430.0n m=1
MMI39 VDD net11 VDD VDD pch l=915.00n w=430.0n m=1
MMI57 VDD net11 VDD VDD pch l=915.00n w=430.0n m=1
MMI58 VDD net11 VDD VDD pch l=915.00n w=430.0n m=1
MMI59 VDD net11 VDD VDD pch l=915.00n w=430.0n m=1
MMI53 VDD net11 VDD VDD pch l=915.00n w=430.0n m=1
MMI50 VDD net11 VDD VDD pch l=915.00n w=430.0n m=1
MMI52 VDD net11 VDD VDD pch l=915.00n w=430.0n m=1
MMI51 VDD net11 VDD VDD pch l=915.00n w=430.0n m=1
MMI64 VSS net67 VSS VSS nch l=915.00n w=300n m=1
MMI65 VSS net67 VSS VSS nch l=915.00n w=300n m=1
MMI62 VSS net67 VSS VSS nch l=915.00n w=300n m=1
MMI67 VSS net67 VSS VSS nch l=915.00n w=300n m=1
MMI68 VSS net67 VSS VSS nch l=915.00n w=300n m=1
MMI60 VSS net67 VSS VSS nch l=915.00n w=300n m=1
MMI66 VSS net67 VSS VSS nch l=915.00n w=300n m=1
MMI69 VSS net67 VSS VSS nch l=915.00n w=300n m=1
MMI49 VSS net67 VSS VSS nch l=915.00n w=300n m=1
MMI61 VSS net67 VSS VSS nch l=915.00n w=300n m=1
MM_u2 net11 net67 VSS VSS nch l=60n w=300n m=1
MMI63 VSS net67 VSS VSS nch l=915.00n w=300n m=1
.ENDS

************************************************************************
* Library Name: tcbn65lp
* Cell Name:    OD25DCAP32
* View Name:    schematic
************************************************************************

.SUBCKT OD25DCAP32 VDD VSS
*.PININFO VDD:B VSS:B
MMI1 VSS VDD VSS VSS nch_25 l=2.15u w=530.0n m=1
MM_u2 VSS VDD VSS VSS nch_25 l=2.15u w=530.0n m=1
.ENDS

************************************************************************
* Library Name: tcbn65lp
* Cell Name:    IND2D1
* View Name:    schematic
************************************************************************

.SUBCKT IND2D1 A1 B1 VDD VSS ZN
*.PININFO A1:I B1:I ZN:O VDD:B VSS:B
MMI2-M_u3 net9 A1 VDD VDD pch l=60n w=260.0n m=1
MMI11 VDD B1 ZN VDD pch l=60n w=520.0n m=1
MM_u16 VDD net9 ZN VDD pch l=60n w=520.0n m=1
MMI13 net21 net9 VSS VSS nch l=60n w=390.0n m=1
MMI2-M_u2 net9 A1 VSS VSS nch l=60n w=195.00n m=1
MMI12 ZN B1 net21 VSS nch l=60n w=390.0n m=1
.ENDS

************************************************************************
* Library Name: tcbn65lp
* Cell Name:    CKND1
* View Name:    schematic
************************************************************************

.SUBCKT CKND1 I VDD VSS ZN
*.PININFO I:I ZN:O VDD:B VSS:B
MM_u2 ZN I VSS VSS nch l=60n w=310.0n m=1
MM_u1 ZN I VDD VDD pch l=60n w=520.0n m=1
.ENDS

************************************************************************
* Library Name: tcbn65lp
* Cell Name:    NR2D1
* View Name:    schematic
************************************************************************

.SUBCKT NR2D1 A1 A2 VDD VSS ZN
*.PININFO A1:I A2:I ZN:O VDD:B VSS:B
MMI1-M_u3 ZN A2 VSS VSS nch l=60n w=390.0n m=1
MMI1-M_u4 ZN A1 VSS VSS nch l=60n w=390.0n m=1
MMI1-M_u1 net13 A2 VDD VDD pch l=60n w=520.0n m=1
MMI1-M_u2 ZN A1 net13 VDD pch l=60n w=520.0n m=1
.ENDS

************************************************************************
* Library Name: tcbn65lp
* Cell Name:    ND2D3
* View Name:    schematic
************************************************************************

.SUBCKT ND2D3 A1 A2 VDD VSS ZN
*.PININFO A1:I A2:I ZN:O VDD:B VSS:B
MMU3_0-M_u4 net21 A2 VSS VSS nch l=60n w=390.0n m=1
MMU3_1-M_u3 ZN A1 net20 VSS nch l=60n w=390.0n m=1
MMU3_2-M_u4 net13 A2 VSS VSS nch l=60n w=390.0n m=1
MMU3_1-M_u4 net20 A2 VSS VSS nch l=60n w=390.0n m=1
MMU3_0-M_u3 ZN A1 net21 VSS nch l=60n w=390.0n m=1
MMU3_2-M_u3 ZN A1 net13 VSS nch l=60n w=390.0n m=1
MMU3_2-M_u1 ZN A1 VDD VDD pch l=60n w=520.0n m=1
MMU3_1-M_u1 ZN A1 VDD VDD pch l=60n w=520.0n m=1
MMU3_1-M_u2 ZN A2 VDD VDD pch l=60n w=520.0n m=1
MMU3_2-M_u2 ZN A2 VDD VDD pch l=60n w=520.0n m=1
MMU3_0-M_u2 ZN A2 VDD VDD pch l=60n w=520.0n m=1
MMU3_0-M_u1 ZN A1 VDD VDD pch l=60n w=520.0n m=1
.ENDS

************************************************************************
* Library Name: tcbn65lp
* Cell Name:    NR2D3
* View Name:    schematic
************************************************************************

.SUBCKT NR2D3 A1 A2 VDD VSS ZN
*.PININFO A1:I A2:I ZN:O VDD:B VSS:B
MMI1_1-M_u3 ZN A2 VSS VSS nch l=60n w=390.0n m=1
MMI1_1-M_u4 ZN A1 VSS VSS nch l=60n w=390.0n m=1
MMI1_2-M_u4 ZN A1 VSS VSS nch l=60n w=390.0n m=1
MMI1_2-M_u3 ZN A2 VSS VSS nch l=60n w=390.0n m=1
MMI1_0-M_u4 ZN A1 VSS VSS nch l=60n w=390.0n m=1
MMI1_0-M_u3 ZN A2 VSS VSS nch l=60n w=390.0n m=1
MMI1_2-M_u1 net36 A2 VDD VDD pch l=60n w=520.0n m=1
MMI1_1-M_u2 ZN A1 net25 VDD pch l=60n w=520.0n m=1
MMI1_0-M_u1 net37 A2 VDD VDD pch l=60n w=520.0n m=1
MMI1_2-M_u2 ZN A1 net36 VDD pch l=60n w=520.0n m=1
MMI1_0-M_u2 ZN A1 net37 VDD pch l=60n w=520.0n m=1
MMI1_1-M_u1 net25 A2 VDD VDD pch l=60n w=520.0n m=1
.ENDS

************************************************************************
* Library Name: tcbn65lp
* Cell Name:    CKAN2D1
* View Name:    schematic
************************************************************************

.SUBCKT CKAN2D1 A1 A2 VDD VSS Z
*.PININFO A1:I A2:I Z:O VDD:B VSS:B
MM_u2-M_u2 net5 A2 VDD VDD pch l=60n w=195.00n m=1
MM_u2-M_u1 net5 A1 VDD VDD pch l=60n w=195.00n m=1
MM_u3-M_u3 Z net5 VDD VDD pch l=60n w=520.0n m=1
MM_u2-M_u4 net21 A2 VSS VSS nch l=60n w=195.00n m=1
MM_u3-M_u2 Z net5 VSS VSS nch l=60n w=280.0n m=1
MM_u2-M_u3 net5 A1 net21 VSS nch l=60n w=195.00n m=1
.ENDS

************************************************************************
* Library Name: tcbn65lp
* Cell Name:    OR4D1
* View Name:    schematic
************************************************************************

.SUBCKT OR4D1 A1 A2 A3 A4 VDD VSS Z
*.PININFO A1:I A2:I A3:I A4:I Z:O VDD:B VSS:B
MM_u3-M_u3 Z net5 VDD VDD pch l=60n w=520.0n m=1
MMU8-M_u1 net13 A1 VDD VDD pch l=60n w=520.0n m=1
MMU8-M_u2 net9 A2 net13 VDD pch l=60n w=520.0n m=1
MMU8-M_u7 net5 A4 net1 VDD pch l=60n w=520.0n m=1
MMU8-M_u6 net1 A3 net9 VDD pch l=60n w=520.0n m=1
MMU8-M_u3 net5 A2 VSS VSS nch l=60n w=195.00n m=1
MMU8-M_u8 net5 A4 VSS VSS nch l=60n w=195.00n m=1
MM_u3-M_u2 Z net5 VSS VSS nch l=60n w=390.0n m=1
MMU8-M_u5 net5 A3 VSS VSS nch l=60n w=195.00n m=1
MMU8-M_u4 net5 A1 VSS VSS nch l=60n w=195.00n m=1
.ENDS

************************************************************************
* Library Name: tcbn65lp
* Cell Name:    OR4D2
* View Name:    schematic
************************************************************************

.SUBCKT OR4D2 A1 A2 A3 A4 VDD VSS Z
*.PININFO A1:I A2:I A3:I A4:I Z:O VDD:B VSS:B
MM_u3_0-M_u3 Z net5 VDD VDD pch l=60n w=520.0n m=1
MM_u3_1-M_u3 Z net5 VDD VDD pch l=60n w=520.0n m=1
MMU8-M_u1 net13 A1 VDD VDD pch l=60n w=520.0n m=1
MMU8-M_u2 net9 A2 net13 VDD pch l=60n w=520.0n m=1
MMU8-M_u7 net5 A4 net1 VDD pch l=60n w=520.0n m=1
MMU8-M_u6 net1 A3 net9 VDD pch l=60n w=520.0n m=1
MMU8-M_u3 net5 A2 VSS VSS nch l=60n w=195.00n m=1
MMU8-M_u8 net5 A4 VSS VSS nch l=60n w=195.00n m=1
MM_u3_1-M_u2 Z net5 VSS VSS nch l=60n w=390.0n m=1
MM_u3_0-M_u2 Z net5 VSS VSS nch l=60n w=390.0n m=1
MMU8-M_u5 net5 A3 VSS VSS nch l=60n w=195.00n m=1
MMU8-M_u4 net5 A1 VSS VSS nch l=60n w=195.00n m=1
.ENDS

************************************************************************
* Library Name: tcbn65lp
* Cell Name:    CKXOR2D1
* View Name:    schematic
************************************************************************

.SUBCKT CKXOR2D1 A1 A2 VDD VSS Z
*.PININFO A1:I A2:I Z:O VDD:B VSS:B
MM_u6-M_u2 net27 A1 net44 VDD pch l=60n w=290.0n m=1
MM_u4-M_u3 Z net44 VDD VDD pch l=60n w=520.0n m=1
MM_u5-M_u3 net5 net27 VDD VDD pch l=60n w=290.0n m=1
MM_u8-M_u3 net9 A1 VDD VDD pch l=60n w=260.0n m=1
MMI0-M_u2 net5 net9 net44 VDD pch l=60n w=290.0n m=1
MM_u2-M_u3 net27 A2 VDD VDD pch l=60n w=520.0n m=1
MM_u6-M_u3 net27 net9 net44 VSS nch l=60n w=195.00n m=1
MMI0-M_u3 net5 A1 net44 VSS nch l=60n w=195.00n m=1
MM_u8-M_u2 net9 A1 VSS VSS nch l=60n w=195.00n m=1
MM_u4-M_u2 Z net44 VSS VSS nch l=60n w=390.0n m=1
MM_u2-M_u2 net27 A2 VSS VSS nch l=60n w=390.0n m=1
MM_u5-M_u2 net5 net27 VSS VSS nch l=60n w=195.00n m=1
.ENDS

************************************************************************
* Library Name: tcbn65lp
* Cell Name:    CKND2D1
* View Name:    schematic
************************************************************************

.SUBCKT CKND2D1 A1 A2 VDD VSS ZN
*.PININFO A1:I A2:I ZN:O VDD:B VSS:B
MMI0-M_u3 ZN A1 net1 VSS nch l=60n w=390.0n m=1
MMI0-M_u4 net1 A2 VSS VSS nch l=60n w=390.0n m=1
MMI0-M_u1 ZN A1 VDD VDD pch l=60n w=390.0n m=1
MMI0-M_u2 ZN A2 VDD VDD pch l=60n w=390.0n m=1
.ENDS

************************************************************************
* Library Name: tcbn65lp
* Cell Name:    IAO21D1
* View Name:    schematic
************************************************************************

.SUBCKT IAO21D1 A1 A2 B VDD VSS ZN
*.PININFO A1:I A2:I B:I ZN:O VDD:B VSS:B
MMU37-M_u3 net11 A2 VSS VSS nch l=60n w=195.00n m=1
MMU39-M_u3 ZN net11 VSS VSS nch l=60n w=390.0n m=1
MMU39-M_u4 ZN B VSS VSS nch l=60n w=390.0n m=1
MMU37-M_u4 net11 A1 VSS VSS nch l=60n w=195.00n m=1
MMU39-M_u2 ZN B net25 VDD pch l=60n w=520.0n m=1
MMU39-M_u1 net25 net11 VDD VDD pch l=60n w=520.0n m=1
MMU37-M_u2 net11 A1 net24 VDD pch l=60n w=260.0n m=1
MMU37-M_u1 net24 A2 VDD VDD pch l=60n w=260.0n m=1
.ENDS

************************************************************************
* Library Name: tcbn65lp
* Cell Name:    INR2D1
* View Name:    schematic
************************************************************************

.SUBCKT INR2D1 A1 B1 VDD VSS ZN
*.PININFO A1:I B1:I ZN:O VDD:B VSS:B
MMU1-M_u3 ZN net11 VSS VSS nch l=60n w=390.0n m=1
MMU1-M_u4 ZN B1 VSS VSS nch l=60n w=390.0n m=1
MMU6-M_u2 net11 A1 VSS VSS nch l=60n w=195.00n m=1
MMU6-M_u3 net11 A1 VDD VDD pch l=60n w=260.0n m=1
MMU1-M_u2 ZN B1 net20 VDD pch l=60n w=520.0n m=1
MMU1-M_u1 net20 net11 VDD VDD pch l=60n w=520.0n m=1
.ENDS

************************************************************************
* Library Name: tcbn65lp
* Cell Name:    INR2XD1
* View Name:    schematic
************************************************************************

.SUBCKT INR2XD1 A1 B1 VDD VSS ZN
*.PININFO A1:I B1:I ZN:O VDD:B VSS:B
MMU1_0-M_u4 ZN B1 VSS VSS nch l=60n w=195.00n m=1
MMU1_0-M_u3 ZN net5 VSS VSS nch l=60n w=195.00n m=1
MMU1_1-M_u3 ZN net5 VSS VSS nch l=60n w=195.00n m=1
MMU6-M_u2 net5 A1 VSS VSS nch l=60n w=390.0n m=1
MMU1_1-M_u4 ZN B1 VSS VSS nch l=60n w=195.00n m=1
MMU6-M_u3 net5 A1 VDD VDD pch l=60n w=520.0n m=1
MMU1_0-M_u2 ZN B1 net36 VDD pch l=60n w=520.0n m=1
MMU1_0-M_u1 net36 net5 VDD VDD pch l=60n w=520.0n m=1
MMU1_1-M_u1 net25 net5 VDD VDD pch l=60n w=520.0n m=1
MMU1_1-M_u2 ZN B1 net25 VDD pch l=60n w=520.0n m=1
.ENDS

************************************************************************
* Library Name: tcbn65lp
* Cell Name:    AOI21D1
* View Name:    schematic
************************************************************************

.SUBCKT AOI21D1 A1 A2 B VDD VSS ZN
*.PININFO A1:I A2:I B:I ZN:O VDD:B VSS:B
MM_u3 net5 A1 ZN VDD pch l=60n w=520.0n m=1
MM_u2 net5 B VDD VDD pch l=60n w=520.0n m=1
MM_u4 net5 A2 ZN VDD pch l=60n w=520.0n m=1
MMI2 ZN A1 net13 VSS nch l=60n w=390.0n m=1
MM_u7 ZN B VSS VSS nch l=60n w=390.0n m=1
MMI3 net13 A2 VSS VSS nch l=60n w=390.0n m=1
.ENDS

************************************************************************
* Library Name: tcbn65lp
* Cell Name:    IND3D1
* View Name:    schematic
************************************************************************

.SUBCKT IND3D1 A1 B1 B2 VDD VSS ZN
*.PININFO A1:I B1:I B2:I ZN:O VDD:B VSS:B
MMI4 VDD net19 ZN VDD pch l=60n w=520.0n m=1
MMI11 VDD B2 ZN VDD pch l=60n w=520.0n m=1
MM_u16 VDD B1 ZN VDD pch l=60n w=520.0n m=1
MMI5-M_u3 net19 A1 VDD VDD pch l=60n w=260.0n m=1
MMI5-M_u2 net19 A1 VSS VSS nch l=60n w=195.00n m=1
MMI6 net25 B1 net17 VSS nch l=60n w=390.0n m=1
MMI12 ZN B2 net25 VSS nch l=60n w=390.0n m=1
MMI7 net17 net19 VSS VSS nch l=60n w=390.0n m=1
.ENDS

************************************************************************
* Library Name: tcbn65lp
* Cell Name:    ND3D1
* View Name:    schematic
************************************************************************

.SUBCKT ND3D1 A1 A2 A3 VDD VSS ZN
*.PININFO A1:I A2:I A3:I ZN:O VDD:B VSS:B
MMI1-M_u5 net9 A2 net1 VSS nch l=60n w=390.0n m=1
MMI1-M_u4 ZN A1 net9 VSS nch l=60n w=390.0n m=1
MMI1-M_u6 net1 A3 VSS VSS nch l=60n w=390.0n m=1
MMI1-M_u1 ZN A1 VDD VDD pch l=60n w=520.0n m=1
MMI1-M_u3 ZN A3 VDD VDD pch l=60n w=520.0n m=1
MMI1-M_u2 ZN A2 VDD VDD pch l=60n w=520.0n m=1
.ENDS

************************************************************************
* Library Name: tcbn65lp
* Cell Name:    NR2D2
* View Name:    schematic
************************************************************************

.SUBCKT NR2D2 A1 A2 VDD VSS ZN
*.PININFO A1:I A2:I ZN:O VDD:B VSS:B
MMI1_1-M_u3 ZN A2 VSS VSS nch l=60n w=390.0n m=1
MMI1_1-M_u4 ZN A1 VSS VSS nch l=60n w=390.0n m=1
MMI1_0-M_u4 ZN A1 VSS VSS nch l=60n w=390.0n m=1
MMI1_0-M_u3 ZN A2 VSS VSS nch l=60n w=390.0n m=1
MMI1_1-M_u2 ZN A1 net17 VDD pch l=60n w=530.0n m=1
MMI1_0-M_u1 net25 A2 VDD VDD pch l=60n w=530.0n m=1
MMI1_0-M_u2 ZN A1 net25 VDD pch l=60n w=530.0n m=1
MMI1_1-M_u1 net17 A2 VDD VDD pch l=60n w=530.0n m=1
.ENDS

************************************************************************
* Library Name: tcbn65lp
* Cell Name:    CKND2
* View Name:    schematic
************************************************************************

.SUBCKT CKND2 I VDD VSS ZN
*.PININFO I:I ZN:O VDD:B VSS:B
MM_u1_0 ZN I VDD VDD pch l=60n w=520.0n m=1
MM_u1_1 ZN I VDD VDD pch l=60n w=520.0n m=1
MM_u2_1 ZN I VSS VSS nch l=60n w=310.0n m=1
MM_u2_0 ZN I VSS VSS nch l=60n w=310.0n m=1
.ENDS

************************************************************************
* Library Name: tcbn65lp
* Cell Name:    CKAN2D4
* View Name:    schematic
************************************************************************

.SUBCKT CKAN2D4 A1 A2 VDD VSS Z
*.PININFO A1:I A2:I Z:O VDD:B VSS:B
MM_u3_0-M_u3 Z net11 VDD VDD pch l=60n w=520.0n m=1
MM_u2-M_u2 net11 A2 VDD VDD pch l=60n w=520.0n m=1
MM_u2-M_u1 net11 A1 VDD VDD pch l=60n w=520.0n m=1
MM_u3_2-M_u3 Z net11 VDD VDD pch l=60n w=520.0n m=1
MM_u3_1-M_u3 Z net11 VDD VDD pch l=60n w=520.0n m=1
MM_u3_3-M_u3 Z net11 VDD VDD pch l=60n w=520.0n m=1
MM_u3_1-M_u2 Z net11 VSS VSS nch l=60n w=195.00n m=1
MM_u3_2-M_u2 Z net11 VSS VSS nch l=60n w=195.00n m=1
MM_u3_3-M_u2 Z net11 VSS VSS nch l=60n w=195.00n m=1
MM_u2-M_u4 net33 A2 VSS VSS nch l=60n w=195.00n m=1
MM_u3_0-M_u2 Z net11 VSS VSS nch l=60n w=195.00n m=1
MM_u2-M_u3 net11 A1 net33 VSS nch l=60n w=195.00n m=1
.ENDS

************************************************************************
* Library Name: tcbn65lp
* Cell Name:    AN2D2
* View Name:    schematic
************************************************************************

.SUBCKT AN2D2 A1 A2 VDD VSS Z
*.PININFO A1:I A2:I Z:O VDD:B VSS:B
MM_u3_1-M_u3 Z net9 VDD VDD pch l=60n w=520.0n m=1
MM_u2-M_u2 net9 A2 VDD VDD pch l=60n w=520.0n m=1
MM_u3_0-M_u3 Z net9 VDD VDD pch l=60n w=520.0n m=1
MM_u2-M_u1 net9 A1 VDD VDD pch l=60n w=520.0n m=1
MM_u2-M_u4 net29 A2 VSS VSS nch l=60n w=390.0n m=1
MM_u2-M_u3 net9 A1 net29 VSS nch l=60n w=390.0n m=1
MM_u3_1-M_u2 Z net9 VSS VSS nch l=60n w=390.0n m=1
MM_u3_0-M_u2 Z net9 VSS VSS nch l=60n w=390.0n m=1
.ENDS

************************************************************************
* Library Name: tcbn65lp
* Cell Name:    NR2XD1
* View Name:    schematic
************************************************************************

.SUBCKT NR2XD1 A1 A2 VDD VSS ZN
*.PININFO A1:I A2:I ZN:O VDD:B VSS:B
MMI1-M_u3 ZN A2 VSS VSS nch l=60n w=390.0n m=1
MMI1-M_u4 ZN A1 VSS VSS nch l=60n w=390.0n m=1
MMI1-M_u1 net13 A2 VDD VDD pch l=60n w=1.04u m=1
MMI1-M_u2 ZN A1 net13 VDD pch l=60n w=1.04u m=1
.ENDS

************************************************************************
* Library Name: tcbn65lp
* Cell Name:    ND2D2
* View Name:    schematic
************************************************************************

.SUBCKT ND2D2 A1 A2 VDD VSS ZN
*.PININFO A1:I A2:I ZN:O VDD:B VSS:B
MMU3_1-M_u1 ZN A1 VDD VDD pch l=60n w=520.0n m=1
MMU3_1-M_u2 ZN A2 VDD VDD pch l=60n w=520.0n m=1
MMU3_0-M_u2 ZN A2 VDD VDD pch l=60n w=520.0n m=1
MMU3_0-M_u1 ZN A1 VDD VDD pch l=60n w=520.0n m=1
MMU3_0-M_u4 net20 A2 VSS VSS nch l=60n w=390.0n m=1
MMU3_1-M_u3 ZN A1 net28 VSS nch l=60n w=390.0n m=1
MMU3_1-M_u4 net28 A2 VSS VSS nch l=60n w=390.0n m=1
MMU3_0-M_u3 ZN A1 net20 VSS nch l=60n w=390.0n m=1
.ENDS

************************************************************************
* Library Name: tcbn65lp
* Cell Name:    OA21D1
* View Name:    schematic
************************************************************************

.SUBCKT OA21D1 A1 A2 B VDD VSS Z
*.PININFO A1:I A2:I B:I Z:O VDD:B VSS:B
MMI8-M_u3 Z net5 VDD VDD pch l=60n w=520.0n m=1
MMI9 net5 A1 net1 VDD pch l=60n w=520.0n m=1
MM_u2 net5 B VDD VDD pch l=60n w=520.0n m=1
MMI7 net1 A2 VDD VDD pch l=60n w=520.0n m=1
MMI6 net24 B VSS VSS nch l=60n w=390.0n m=1
MMI11 net5 A1 net24 VSS nch l=60n w=390.0n m=1
MMI12 net5 A2 net24 VSS nch l=60n w=390.0n m=1
MMI8-M_u2 Z net5 VSS VSS nch l=60n w=390.0n m=1
.ENDS

************************************************************************
* Library Name: tcbn65lp
* Cell Name:    AOI22D1
* View Name:    schematic
************************************************************************

.SUBCKT AOI22D1 A1 A2 B1 B2 VDD VSS ZN
*.PININFO A1:I A2:I B1:I B2:I ZN:O VDD:B VSS:B
MMI3 ZN B1 net1 VSS nch l=60n w=390.0n m=1
MMI9 ZN A1 net5 VSS nch l=60n w=390.0n m=1
MMI10 net5 A2 VSS VSS nch l=60n w=390.0n m=1
MMI8 net1 B2 VSS VSS nch l=60n w=390.0n m=1
MM_u3 net20 A2 ZN VDD pch l=60n w=520.0n m=1
MM_u5 VDD B2 net20 VDD pch l=60n w=520.0n m=1
MM_u2 net20 A1 ZN VDD pch l=60n w=520.0n m=1
MM_u4 VDD B1 net20 VDD pch l=60n w=520.0n m=1
.ENDS

************************************************************************
* Library Name: tcbn65lp
* Cell Name:    AO22D1
* View Name:    schematic
************************************************************************

.SUBCKT AO22D1 A1 A2 B1 B2 VDD VSS Z
*.PININFO A1:I A2:I B1:I B2:I Z:O VDD:B VSS:B
MMI20-M_u2 Z net5 VSS VSS nch l=60n w=390.0n m=1
MMI29 net13 A2 VSS VSS nch l=60n w=390.0n m=1
MMI22 net9 B2 VSS VSS nch l=60n w=390.0n m=1
MMI28 net5 A1 net13 VSS nch l=60n w=390.0n m=1
MMI21 net5 B1 net9 VSS nch l=60n w=390.0n m=1
MMI17 net25 B1 VDD VDD pch l=60n w=520.0n m=1
MMI19 net5 A1 net25 VDD pch l=60n w=520.0n m=1
MMI18 net5 A2 net25 VDD pch l=60n w=520.0n m=1
MMI15 net25 B2 VDD VDD pch l=60n w=520.0n m=1
MMI20-M_u3 Z net5 VDD VDD pch l=60n w=520.0n m=1
.ENDS

************************************************************************
* Library Name: tcbn65lp
* Cell Name:    AOI22D2
* View Name:    schematic
************************************************************************

.SUBCKT AOI22D2 A1 A2 B1 B2 VDD VSS ZN
*.PININFO A1:I A2:I B1:I B2:I ZN:O VDD:B VSS:B
MMI11 VDD B2 net5 VDD pch l=60n w=1.04u m=1
MMI23 VDD B1 net5 VDD pch l=60n w=1.04u m=1
MMI25 net5 A1 ZN VDD pch l=60n w=1.04u m=1
MMI24 net5 A2 ZN VDD pch l=60n w=1.04u m=1
MMI19_1 ZN A1 net29 VSS nch l=60n w=390.0n m=1
MMI15_1 net28 B2 VSS VSS nch l=60n w=390.0n m=1
MMI16_0 ZN B1 net33 VSS nch l=60n w=390.0n m=1
MMI15_0 net33 B2 VSS VSS nch l=60n w=390.0n m=1
MMI20_1 net29 A2 VSS VSS nch l=60n w=390.0n m=1
MMI16_1 ZN B1 net28 VSS nch l=60n w=390.0n m=1
MMI19_0 ZN A1 net24 VSS nch l=60n w=390.0n m=1
MMI20_0 net24 A2 VSS VSS nch l=60n w=390.0n m=1
.ENDS

************************************************************************
* Library Name: tcbn65lp
* Cell Name:    AOI222D1
* View Name:    schematic
************************************************************************

.SUBCKT AOI222D1 A1 A2 B1 B2 C1 C2 VDD VSS ZN
*.PININFO A1:I A2:I B1:I B2:I C1:I C2:I ZN:O VDD:B VSS:B
MM_u3 net9 A2 ZN VDD pch l=60n w=520.0n m=1
MMU22 VDD C1 net20 VDD pch l=60n w=520.0n m=1
MM_u5 net20 B2 net9 VDD pch l=60n w=520.0n m=1
MM_u2 net9 A1 ZN VDD pch l=60n w=520.0n m=1
MMU27 VDD C2 net20 VDD pch l=60n w=520.0n m=1
MM_u4 net20 B1 net9 VDD pch l=60n w=520.0n m=1
MMI6-M_u11 net36 A2 VSS VSS nch l=60n w=390.0n m=1
MMI7-M_u11 net28 B2 VSS VSS nch l=60n w=390.0n m=1
MMI17-M_u10 ZN C1 net29 VSS nch l=60n w=390.0n m=1
MMI6-M_u10 ZN A1 net36 VSS nch l=60n w=390.0n m=1
MMI17-M_u11 net29 C2 VSS VSS nch l=60n w=390.0n m=1
MMI7-M_u10 ZN B1 net28 VSS nch l=60n w=390.0n m=1
.ENDS

************************************************************************
* Library Name: tcbn65lp
* Cell Name:    IOA21D1
* View Name:    schematic
************************************************************************

.SUBCKT IOA21D1 A1 A2 B VDD VSS ZN
*.PININFO A1:I A2:I B:I ZN:O VDD:B VSS:B
MMU35-M_u2 net5 A2 VDD VDD pch l=60n w=260.0n m=1
MMU36-M_u1 ZN B VDD VDD pch l=60n w=520.0n m=1
MMU35-M_u1 net5 A1 VDD VDD pch l=60n w=260.0n m=1
MMU36-M_u2 ZN net5 VDD VDD pch l=60n w=520.0n m=1
MMU35-M_u4 net29 A2 VSS VSS nch l=60n w=195.00n m=1
MMU35-M_u3 net5 A1 net29 VSS nch l=60n w=195.00n m=1
MMU36-M_u3 ZN B net24 VSS nch l=60n w=390.0n m=1
MMU36-M_u4 net24 net5 VSS VSS nch l=60n w=390.0n m=1
.ENDS

************************************************************************
* Library Name: tcbn65lp
* Cell Name:    ND3D2
* View Name:    schematic
************************************************************************

.SUBCKT ND3D2 A1 A2 A3 VDD VSS ZN
*.PININFO A1:I A2:I A3:I ZN:O VDD:B VSS:B
MMI0_0-M_u3 ZN A3 VDD VDD pch l=60n w=520.0n m=1
MMI0_0-M_u1 ZN A1 VDD VDD pch l=60n w=520.0n m=1
MMI0_1-M_u2 ZN A2 VDD VDD pch l=60n w=520.0n m=1
MMI0_1-M_u3 ZN A3 VDD VDD pch l=60n w=520.0n m=1
MMI0_0-M_u2 ZN A2 VDD VDD pch l=60n w=520.0n m=1
MMI0_1-M_u1 ZN A1 VDD VDD pch l=60n w=520.0n m=1
MMI0_1-M_u5 net44 A2 net37 VSS nch l=60n w=390.0n m=1
MMI0_1-M_u4 ZN A1 net44 VSS nch l=60n w=390.0n m=1
MMI0_1-M_u6 net37 A3 VSS VSS nch l=60n w=390.0n m=1
MMI0_0-M_u6 net33 A3 VSS VSS nch l=60n w=390.0n m=1
MMI0_0-M_u5 net29 A2 net33 VSS nch l=60n w=390.0n m=1
MMI0_0-M_u4 ZN A1 net29 VSS nch l=60n w=390.0n m=1
.ENDS

************************************************************************
* Library Name: tcbn65lp
* Cell Name:    AOI221D1
* View Name:    schematic
************************************************************************

.SUBCKT AOI221D1 A1 A2 B1 B2 C VDD VSS ZN
*.PININFO A1:I A2:I B1:I B2:I C:I ZN:O VDD:B VSS:B
MM_u3 net9 A2 ZN VDD pch l=60n w=520.0n m=1
MMU22 VDD C net5 VDD pch l=60n w=520.0n m=1
MM_u2 net9 A1 ZN VDD pch l=60n w=520.0n m=1
MM_u5 net5 B2 net9 VDD pch l=60n w=520.0n m=1
MM_u4 net5 B1 net9 VDD pch l=60n w=520.0n m=1
MMI1-M_u10 ZN A1 net29 VSS nch l=60n w=390.0n m=1
MMI17-M_u10 ZN B1 net36 VSS nch l=60n w=390.0n m=1
MMI1-M_u11 net29 A2 VSS VSS nch l=60n w=390.0n m=1
MMU20 ZN C VSS VSS nch l=60n w=390.0n m=1
MMI17-M_u11 net36 B2 VSS VSS nch l=60n w=390.0n m=1
.ENDS

************************************************************************
* Library Name: tcbn65lp
* Cell Name:    ND4D1
* View Name:    schematic
************************************************************************

.SUBCKT ND4D1 A1 A2 A3 A4 VDD VSS ZN
*.PININFO A1:I A2:I A3:I A4:I ZN:O VDD:B VSS:B
MMI3 net13 A2 net9 VSS nch l=60n w=390.0n m=1
MMI4 net9 A3 net1 VSS nch l=60n w=390.0n m=1
MMU53 ZN A1 net13 VSS nch l=60n w=390.0n m=1
MMI5 net1 A4 VSS VSS nch l=60n w=390.0n m=1
MMI1 ZN A3 VDD VDD pch l=60n w=520.0n m=1
MMI2 ZN A4 VDD VDD pch l=60n w=520.0n m=1
MMI0 ZN A2 VDD VDD pch l=60n w=520.0n m=1
MMI7 ZN A1 VDD VDD pch l=60n w=520.0n m=1
.ENDS

************************************************************************
* Library Name: tcbn65lp
* Cell Name:    AO211D1
* View Name:    schematic
************************************************************************

.SUBCKT AO211D1 A1 A2 B C VDD VSS Z
*.PININFO A1:I A2:I B:I C:I Z:O VDD:B VSS:B
MM_u12 net5 C VSS VSS nch l=60n w=390.0n m=1
MMI8-M_u2 Z net5 VSS VSS nch l=60n w=390.0n m=1
MMI12-M_u10 net5 A1 net1 VSS nch l=60n w=390.0n m=1
MM_u13 net5 B VSS VSS nch l=60n w=390.0n m=1
MMI12-M_u11 net1 A2 VSS VSS nch l=60n w=390.0n m=1
MMI16-MI12 net33 B net25 VDD pch l=60n w=520.0n m=1
MM_u3 net33 A1 net5 VDD pch l=60n w=520.0n m=1
MMI0 net33 A2 net5 VDD pch l=60n w=520.0n m=1
MMI16-MI13 net25 C VDD VDD pch l=60n w=520.0n m=1
MMI8-M_u3 Z net5 VDD VDD pch l=60n w=520.0n m=1
.ENDS

************************************************************************
* Library Name: tcbn65lp
* Cell Name:    AOI211D1
* View Name:    schematic
************************************************************************

.SUBCKT AOI211D1 A1 A2 B C VDD VSS ZN
*.PININFO A1:I A2:I B:I C:I ZN:O VDD:B VSS:B
MMI17-M_u10 ZN A1 net5 VSS nch l=60n w=390.0n m=1
MM_u12 ZN C VSS VSS nch l=60n w=390.0n m=1
MMI17-M_u11 net5 A2 VSS VSS nch l=60n w=390.0n m=1
MM_u13 ZN B VSS VSS nch l=60n w=390.0n m=1
MMI19-MI12 net25 B net32 VDD pch l=60n w=520.0n m=1
MM_u3 net25 A1 ZN VDD pch l=60n w=520.0n m=1
MMI19-MI13 net32 C VDD VDD pch l=60n w=520.0n m=1
MM_u2 net25 A2 ZN VDD pch l=60n w=520.0n m=1
.ENDS

************************************************************************
* Library Name: tcbn65lp
* Cell Name:    ND4D2
* View Name:    schematic
************************************************************************

.SUBCKT ND4D2 A1 A2 A3 A4 VDD VSS ZN
*.PININFO A1:I A2:I A3:I A4:I ZN:O VDD:B VSS:B
MMU53_1 ZN A1 net5 VSS nch l=60n w=390.0n m=1
MMI11_0 net20 A3 net13 VSS nch l=60n w=390.0n m=1
MMI12_1 net13 A4 VSS VSS nch l=60n w=390.0n m=1
MMI9_1 net5 A2 net20 VSS nch l=60n w=390.0n m=1
MMI12_0 net13 A4 VSS VSS nch l=60n w=390.0n m=1
MMU53_0 ZN A1 net5 VSS nch l=60n w=390.0n m=1
MMI9_0 net5 A2 net20 VSS nch l=60n w=390.0n m=1
MMI11_1 net20 A3 net13 VSS nch l=60n w=390.0n m=1
MMI7_1 ZN A2 VDD VDD pch l=60n w=520.0n m=1