************************************************************************
* auCdl Netlist:
* 
* Library Name:  ETROC2_TH_Ctrl
* Top Cell Name: TH_CtrlTMR
* View Name:     schematic
* Netlisted on:  Apr 23 22:14:06 2022
************************************************************************

*.INCLUDE  /usr/local/TSMC65nm/V1.7A_1/1p9m6x1z1u/tsmcN65/../PVS_QRC/lvs/source.added
*.EQUATION
*.SCALE METER
*.MEGA
.PARAM



************************************************************************
* Library Name: tcbn65lp
* Cell Name:    DCAP
* View Name:    schematic
************************************************************************

.SUBCKT DCAP VDD VSS
*.PININFO VDD:B VSS:B
MM_u2 net7 net5 VSS VSS nch l=60n w=345.00n m=1
MM_u1 net5 net7 VDD VDD pch l=60n w=485.00n m=1
.ENDS

************************************************************************
* Library Name: tcbn65lp
* Cell Name:    DCAP4
* View Name:    schematic
************************************************************************

.SUBCKT DCAP4 VDD VSS
*.PININFO VDD:B VSS:B
MMI4 VSS net9 VSS VSS nch l=80n w=330.0n m=1
MM_u2 net11 net9 VSS VSS nch l=60n w=330.0n m=1
MMI3 VDD net11 VDD VDD pch l=80n w=460.0n m=1
MM_u1 net9 net11 VDD VDD pch l=60n w=460.0n m=1
.ENDS

************************************************************************
* Library Name: tcbn65lp
* Cell Name:    DCAP8
* View Name:    schematic
************************************************************************

.SUBCKT DCAP8 VDD VSS
*.PININFO VDD:B VSS:B
MMI4 VSS net9 VSS VSS nch l=880.0n w=300n m=1
MM_u2 net11 net9 VSS VSS nch l=60n w=300n m=1
MMI3 VDD net11 VDD VDD pch l=880.0n w=430.0n m=1
MM_u1 net9 net11 VDD VDD pch l=60n w=390.0n m=1
.ENDS

************************************************************************
* Library Name: tcbn65lp
* Cell Name:    DCAP32
* View Name:    schematic
************************************************************************

.SUBCKT DCAP32 VDD VSS
*.PININFO VDD:B VSS:B
MMI38 VSS net11 VSS VSS nch l=975.00n w=300n m=1
MMI6 VSS net11 VSS VSS nch l=975.00n w=300n m=1
MMI39 VSS net11 VSS VSS nch l=975.00n w=300n m=1
MMI37 VSS net11 VSS VSS nch l=975.00n w=300n m=1
MM_u2 net5 net11 VSS VSS nch l=60n w=300n m=1
MMI36 VSS net11 VSS VSS nch l=975.00n w=300n m=1
MMI33 VDD net5 VDD VDD pch l=975.00n w=430.0n m=1
MM_u1 net11 net5 VDD VDD pch l=60n w=390.0n m=1
MMI34 VDD net5 VDD VDD pch l=975.00n w=430.0n m=1
MMI35 VDD net5 VDD VDD pch l=975.00n w=430.0n m=1
MMI32 VDD net5 VDD VDD pch l=975.00n w=430.0n m=1
MMI26 VDD net5 VDD VDD pch l=975.00n w=430.0n m=1
.ENDS

************************************************************************
* Library Name: tcbn65lp
* Cell Name:    OD25DCAP16
* View Name:    schematic
************************************************************************

.SUBCKT OD25DCAP16 VDD VSS
*.PININFO VDD:B VSS:B
MM_u2 VSS VDD VSS VSS nch_25 l=1.41u w=530.0n m=1
.ENDS

************************************************************************
* Library Name: tcbn65lp
* Cell Name:    DCAP16
* View Name:    schematic
************************************************************************

.SUBCKT DCAP16 VDD VSS
*.PININFO VDD:B VSS:B
MMI4 VSS net11 VSS VSS nch l=690.0n w=300n m=1
MMI8 VSS net11 VSS VSS nch l=690.0n w=300n m=1
MM_u2 net5 net11 VSS VSS nch l=60n w=300n m=1
MMI7 VSS net11 VSS VSS nch l=690.0n w=300n m=1
MMI3 VDD net5 VDD VDD pch l=690.0n w=430.0n m=1
MMI6 VDD net5 VDD VDD pch l=690.0n w=430.0n m=1
MM_u1 net11 net5 VDD VDD pch l=60n w=390.0n m=1
MMI5 VDD net5 VDD VDD pch l=690.0n w=430.0n m=1
.ENDS

************************************************************************
* Library Name: tcbn65lp
* Cell Name:    OD25DCAP32
* View Name:    schematic
************************************************************************

.SUBCKT OD25DCAP32 VDD VSS
*.PININFO VDD:B VSS:B
MMI1 VSS VDD VSS VSS nch_25 l=2.15u w=530.0n m=1
MM_u2 VSS VDD VSS VSS nch_25 l=2.15u w=530.0n m=1
.ENDS

************************************************************************
* Library Name: tcbn65lp
* Cell Name:    DCAP64
* View Name:    schematic
************************************************************************

.SUBCKT DCAP64 VDD VSS
*.PININFO VDD:B VSS:B
MMI54 VDD net11 VDD VDD pch l=915.00n w=430.0n m=1
MM_u1 net67 net11 VDD VDD pch l=60n w=390.0n m=1
MMI56 VDD net11 VDD VDD pch l=915.00n w=430.0n m=1
MMI55 VDD net11 VDD VDD pch l=915.00n w=430.0n m=1
MMI39 VDD net11 VDD VDD pch l=915.00n w=430.0n m=1
MMI57 VDD net11 VDD VDD pch l=915.00n w=430.0n m=1
MMI58 VDD net11 VDD VDD pch l=915.00n w=430.0n m=1
MMI59 VDD net11 VDD VDD pch l=915.00n w=430.0n m=1
MMI53 VDD net11 VDD VDD pch l=915.00n w=430.0n m=1
MMI50 VDD net11 VDD VDD pch l=915.00n w=430.0n m=1
MMI52 VDD net11 VDD VDD pch l=915.00n w=430.0n m=1
MMI51 VDD net11 VDD VDD pch l=915.00n w=430.0n m=1
MMI64 VSS net67 VSS VSS nch l=915.00n w=300n m=1
MMI65 VSS net67 VSS VSS nch l=915.00n w=300n m=1
MMI62 VSS net67 VSS VSS nch l=915.00n w=300n m=1
MMI67 VSS net67 VSS VSS nch l=915.00n w=300n m=1
MMI68 VSS net67 VSS VSS nch l=915.00n w=300n m=1
MMI60 VSS net67 VSS VSS nch l=915.00n w=300n m=1
MMI66 VSS net67 VSS VSS nch l=915.00n w=300n m=1
MMI69 VSS net67 VSS VSS nch l=915.00n w=300n m=1
MMI49 VSS net67 VSS VSS nch l=915.00n w=300n m=1
MMI61 VSS net67 VSS VSS nch l=915.00n w=300n m=1
MM_u2 net11 net67 VSS VSS nch l=60n w=300n m=1
MMI63 VSS net67 VSS VSS nch l=915.00n w=300n m=1
.ENDS

************************************************************************
* Library Name: tcbn65lp
* Cell Name:    OD25DCAP64
* View Name:    schematic
************************************************************************

.SUBCKT OD25DCAP64 VDD VSS
*.PININFO VDD:B VSS:B
MMI3 VSS VDD VSS VSS nch_25 l=2.52u w=530.0n m=1
MMI4 VSS VDD VSS VSS nch_25 l=2.52u w=530.0n m=1
MMI2 VSS VDD VSS VSS nch_25 l=2.52u w=530.0n m=1
MM_u2 VSS VDD VSS VSS nch_25 l=2.52u w=530.0n m=1
.ENDS

************************************************************************
* Library Name: tcbn65lp
* Cell Name:    CKND1
* View Name:    schematic
************************************************************************

.SUBCKT CKND1 I VDD VSS ZN
*.PININFO I:I ZN:O VDD:B VSS:B
MM_u2 ZN I VSS VSS nch l=60n w=310.0n m=1
MM_u1 ZN I VDD VDD pch l=60n w=520.0n m=1
.ENDS

************************************************************************
* Library Name: tcbn65lp
* Cell Name:    NR2D1
* View Name:    schematic
************************************************************************

.SUBCKT NR2D1 A1 A2 VDD VSS ZN
*.PININFO A1:I A2:I ZN:O VDD:B VSS:B
MMI1-M_u3 ZN A2 VSS VSS nch l=60n w=390.0n m=1
MMI1-M_u4 ZN A1 VSS VSS nch l=60n w=390.0n m=1
MMI1-M_u1 net13 A2 VDD VDD pch l=60n w=520.0n m=1
MMI1-M_u2 ZN A1 net13 VDD pch l=60n w=520.0n m=1
.ENDS

************************************************************************
* Library Name: tcbn65lp
* Cell Name:    AOI21D1
* View Name:    schematic
************************************************************************

.SUBCKT AOI21D1 A1 A2 B VDD VSS ZN
*.PININFO A1:I A2:I B:I ZN:O VDD:B VSS:B
MM_u3 net5 A1 ZN VDD pch l=60n w=520.0n m=1
MM_u2 net5 B VDD VDD pch l=60n w=520.0n m=1
MM_u4 net5 A2 ZN VDD pch l=60n w=520.0n m=1
MMI2 ZN A1 net13 VSS nch l=60n w=390.0n m=1
MM_u7 ZN B VSS VSS nch l=60n w=390.0n m=1
MMI3 net13 A2 VSS VSS nch l=60n w=390.0n m=1
.ENDS

************************************************************************
* Library Name: tcbn65lp
* Cell Name:    CKND2D1
* View Name:    schematic
************************************************************************

.SUBCKT CKND2D1 A1 A2 VDD VSS ZN
*.PININFO A1:I A2:I ZN:O VDD:B VSS:B
MMI0-M_u3 ZN A1 net1 VSS nch l=60n w=390.0n m=1
MMI0-M_u4 net1 A2 VSS VSS nch l=60n w=390.0n m=1
MMI0-M_u1 ZN A1 VDD VDD pch l=60n w=390.0n m=1
MMI0-M_u2 ZN A2 VDD VDD pch l=60n w=390.0n m=1
.ENDS

************************************************************************
* Library Name: tcbn65lp
* Cell Name:    OA21D1
* View Name:    schematic
************************************************************************

.SUBCKT OA21D1 A1 A2 B VDD VSS Z
*.PININFO A1:I A2:I B:I Z:O VDD:B VSS:B
MMI8-M_u3 Z net5 VDD VDD pch l=60n w=520.0n m=1
MMI9 net5 A1 net1 VDD pch l=60n w=520.0n m=1
MM_u2 net5 B VDD VDD pch l=60n w=520.0n m=1
MMI7 net1 A2 VDD VDD pch l=60n w=520.0n m=1
MMI6 net24 B VSS VSS nch l=60n w=390.0n m=1
MMI11 net5 A1 net24 VSS nch l=60n w=390.0n m=1
MMI12 net5 A2 net24 VSS nch l=60n w=390.0n m=1
MMI8-M_u2 Z net5 VSS VSS nch l=60n w=390.0n m=1
.ENDS

************************************************************************
* Library Name: tcbn65lp
* Cell Name:    CKXOR2D1
* View Name:    schematic
************************************************************************

.SUBCKT CKXOR2D1 A1 A2 VDD VSS Z
*.PININFO A1:I A2:I Z:O VDD:B VSS:B
MM_u6-M_u2 net27 A1 net44 VDD pch l=60n w=290.0n m=1
MM_u4-M_u3 Z net44 VDD VDD pch l=60n w=520.0n m=1
MM_u5-M_u3 net5 net27 VDD VDD pch l=60n w=290.0n m=1
MM_u8-M_u3 net9 A1 VDD VDD pch l=60n w=260.0n m=1
MMI0-M_u2 net5 net9 net44 VDD pch l=60n w=290.0n m=1
MM_u2-M_u3 net27 A2 VDD VDD pch l=60n w=520.0n m=1
MM_u6-M_u3 net27 net9 net44 VSS nch l=60n w=195.00n m=1
MMI0-M_u3 net5 A1 net44 VSS nch l=60n w=195.00n m=1
MM_u8-M_u2 net9 A1 VSS VSS nch l=60n w=195.00n m=1
MM_u4-M_u2 Z net44 VSS VSS nch l=60n w=390.0n m=1
MM_u2-M_u2 net27 A2 VSS VSS nch l=60n w=390.0n m=1
MM_u5-M_u2 net5 net27 VSS VSS nch l=60n w=195.00n m=1
.ENDS

************************************************************************
* Library Name: tcbn65lp
* Cell Name:    CKAN2D1
* View Name:    schematic
************************************************************************

.SUBCKT CKAN2D1 A1 A2 VDD VSS Z
*.PININFO A1:I A2:I Z:O VDD:B VSS:B
MM_u2-M_u2 net5 A2 VDD VDD pch l=60n w=195.00n m=1
MM_u2-M_u1 net5 A1 VDD VDD pch l=60n w=195.00n m=1
MM_u3-M_u3 Z net5 VDD VDD pch l=60n w=520.0n m=1
MM_u2-M_u4 net21 A2 VSS VSS nch l=60n w=195.00n m=1
MM_u3-M_u2 Z net5 VSS VSS nch l=60n w=280.0n m=1
MM_u2-M_u3 net5 A1 net21 VSS nch l=60n w=195.00n m=1
.ENDS

************************************************************************
* Library Name: tcbn65lp
* Cell Name:    IAO21D1
* View Name:    schematic
************************************************************************

.SUBCKT IAO21D1 A1 A2 B VDD VSS ZN
*.PININFO A1:I A2:I B:I ZN:O VDD:B VSS:B
MMU37-M_u3 net11 A2 VSS VSS nch l=60n w=195.00n m=1
MMU39-M_u3 ZN net11 VSS VSS nch l=60n w=390.0n m=1
MMU39-M_u4 ZN B VSS VSS nch l=60n w=390.0n m=1
MMU37-M_u4 net11 A1 VSS VSS nch l=60n w=195.00n m=1
MMU39-M_u2 ZN B net25 VDD pch l=60n w=520.0n m=1
MMU39-M_u1 net25 net11 VDD VDD pch l=60n w=520.0n m=1
MMU37-M_u2 net11 A1 net24 VDD pch l=60n w=260.0n m=1
MMU37-M_u1 net24 A2 VDD VDD pch l=60n w=260.0n m=1
.ENDS

************************************************************************
* Library Name: tcbn65lp
* Cell Name:    OR2D1
* View Name:    schematic
************************************************************************

.SUBCKT OR2D1 A1 A2 VDD VSS Z
*.PININFO A1:I A2:I Z:O VDD:B VSS:B
MMU1-M_u2 Z net5 VSS VSS nch l=60n w=390.0n m=1
MM_u7-M_u4 net5 A1 VSS VSS nch l=60n w=195.00n m=1
MM_u7-M_u3 net5 A2 VSS VSS nch l=60n w=195.00n m=1
MMU1-M_u3 Z net5 VDD VDD pch l=60n w=520.0n m=1
MM_u7-M_u1 net17 A2 VDD VDD pch l=60n w=520.0n m=1
MM_u7-M_u2 net5 A1 net17 VDD pch l=60n w=520.0n m=1
.ENDS

************************************************************************
* Library Name: tcbn65lp
* Cell Name:    IOA21D1
* View Name:    schematic
************************************************************************

.SUBCKT IOA21D1 A1 A2 B VDD VSS ZN
*.PININFO A1:I A2:I B:I ZN:O VDD:B VSS:B
MMU35-M_u2 net5 A2 VDD VDD pch l=60n w=260.0n m=1
MMU36-M_u1 ZN B VDD VDD pch l=60n w=520.0n m=1
MMU35-M_u1 net5 A1 VDD VDD pch l=60n w=260.0n m=1
MMU36-M_u2 ZN net5 VDD VDD pch l=60n w=520.0n m=1
MMU35-M_u4 net29 A2 VSS VSS nch l=60n w=195.00n m=1
MMU35-M_u3 net5 A1 net29 VSS nch l=60n w=195.00n m=1
MMU36-M_u3 ZN B net24 VSS nch l=60n w=390.0n m=1
MMU36-M_u4 net24 net5 VSS VSS nch l=60n w=390.0n m=1
.ENDS

************************************************************************
* Library Name: tcbn65lp
* Cell Name:    XNR2D1
* View Name:    schematic
************************************************************************

.SUBCKT XNR2D1 A1 A2 VDD VSS ZN
*.PININFO A1:I A2:I ZN:O VDD:B VSS:B
MM_u6-M_u2 net27 net9 net44 VDD pch l=60n w=370.0n m=1
MM_u4-M_u3 ZN net44 VDD VDD pch l=60n w=520.0n m=1
MM_u5-M_u3 net5 net27 VDD VDD pch l=60n w=260.0n m=1
MM_u8-M_u3 net9 A1 VDD VDD pch l=60n w=260.0n m=1
MMI0-M_u2 net5 A1 net44 VDD pch l=60n w=235.00n m=1
MM_u2-M_u3 net27 A2 VDD VDD pch l=60n w=520.0n m=1
MM_u6-M_u3 net27 A1 net44 VSS nch l=60n w=225.00n m=1
MMI0-M_u3 net5 net9 net44 VSS nch l=60n w=190.0n m=1
MM_u8-M_u2 net9 A1 VSS VSS nch l=60n w=195.00n m=1
MM_u4-M_u2 ZN net44 VSS VSS nch l=60n w=390.0n m=1
MM_u2-M_u2 net27 A2 VSS VSS nch l=60n w=390.0n m=1
MM_u5-M_u2 net5 net27 VSS VSS nch l=60n w=190.0n m=1
.ENDS

************************************************************************
* Library Name: tcbn65lp
* Cell Name:    AO21D1
* View Name:    schematic
************************************************************************

.SUBCKT AO21D1 A1 A2 B VDD VSS Z
*.PININFO A1:I A2:I B:I Z:O VDD:B VSS:B
MM_u7 net5 A1 net1 VSS nch l=60n w=390.0n m=1
MMI8-M_u2 Z net5 VSS VSS nch l=60n w=390.0n m=1
MMI6 net5 B VSS VSS nch l=60n w=390.0n m=1
MMI7 net1 A2 VSS VSS nch l=60n w=390.0n m=1
MM_u3 net25 A1 net5 VDD pch l=60n w=520.0n m=1
MM_u2 net25 B VDD VDD pch l=60n w=520.0n m=1
MM_u4 net25 A2 net5 VDD pch l=60n w=520.0n m=1
MMI8-M_u3 Z net5 VDD VDD pch l=60n w=520.0n m=1
.ENDS

************************************************************************
* Library Name: tcbn65lp
* Cell Name:    OAI21D1
* View Name:    schematic
************************************************************************

.SUBCKT OAI21D1 A1 A2 B VDD VSS ZN
*.PININFO A1:I A2:I B:I ZN:O VDD:B VSS:B
MMI16-MI13 net9 A2 VDD VDD pch l=60n w=520.0n m=1
MM_u9 ZN B VDD VDD pch l=60n w=520.0n m=1
MMI16-MI12 ZN A1 net9 VDD pch l=60n w=520.0n m=1
MM_u3 ZN A2 net24 VSS nch l=60n w=390.0n m=1
MM_u4 net24 B VSS VSS nch l=60n w=390.0n m=1
MM_u2 ZN A1 net24 VSS nch l=60n w=390.0n m=1
.ENDS

************************************************************************
* Library Name: tcbn65lp
* Cell Name:    IND2D1
* View Name:    schematic
************************************************************************

.SUBCKT IND2D1 A1 B1 VDD VSS ZN
*.PININFO A1:I B1:I ZN:O VDD:B VSS:B
MMI2-M_u3 net9 A1 VDD VDD pch l=60n w=260.0n m=1
MMI11 VDD B1 ZN VDD pch l=60n w=520.0n m=1
MM_u16 VDD net9 ZN VDD pch l=60n w=520.0n m=1
MMI13 net21 net9 VSS VSS nch l=60n w=390.0n m=1
MMI2-M_u2 net9 A1 VSS VSS nch l=60n w=195.00n m=1
MMI12 ZN B1 net21 VSS nch l=60n w=390.0n m=1
.ENDS

************************************************************************
* Library Name: tcbn65lp
* Cell Name:    OR3D1
* View Name:    schematic
************************************************************************

.SUBCKT OR3D1 A1 A2 A3 VDD VSS Z
*.PININFO A1:I A2:I A3:I Z:O VDD:B VSS:B
MMU42-M_u1 net13 A1 VDD VDD pch l=60n w=520.0n m=1
MMU42-M_u3 net9 A3 net1 VDD pch l=60n w=520.0n m=1
MM_u4-M_u3 Z net9 VDD VDD pch l=60n w=520.0n m=1
MMU42-M_u2 net1 A2 net13 VDD pch l=60n w=520.0n m=1
MMU42-M_u5 net9 A2 VSS VSS nch l=60n w=195.00n m=1
MMU42-M_u4 net9 A1 VSS VSS nch l=60n w=195.00n m=1
MM_u4-M_u2 Z net9 VSS VSS nch l=60n w=390.0n m=1
MMU42-M_u6 net9 A3 VSS VSS nch l=60n w=195.00n m=1
.ENDS

************************************************************************
* Library Name: tcbn65lp
* Cell Name:    ND3D1
* View Name:    schematic
************************************************************************

.SUBCKT ND3D1 A1 A2 A3 VDD VSS ZN
*.PININFO A1:I A2:I A3:I ZN:O VDD:B VSS:B
MMI1-M_u5 net9 A2 net1 VSS nch l=60n w=390.0n m=1
MMI1-M_u4 ZN A1 net9 VSS nch l=60n w=390.0n m=1
MMI1-M_u6 net1 A3 VSS VSS nch l=60n w=390.0n m=1
MMI1-M_u1 ZN A1 VDD VDD pch l=60n w=520.0n m=1
MMI1-M_u3 ZN A3 VDD VDD pch l=60n w=520.0n m=1
MMI1-M_u2 ZN A2 VDD VDD pch l=60n w=520.0n m=1
.ENDS

************************************************************************
* Library Name: tcbn65lp
* Cell Name:    OA31D1
* View Name:    schematic
************************************************************************

.SUBCKT OA31D1 A1 A2 A3 B VDD VSS Z
*.PININFO A1:I A2:I A3:I B:I Z:O VDD:B VSS:B
MMU1-M_u2 Z net25 VSS VSS nch l=60n w=390.0n m=1
MMI6 net5 A1 net25 VSS nch l=60n w=390.0n m=1
MM_u5 VSS B net5 VSS nch l=60n w=390.0n m=1
MMI8 net5 A3 net25 VSS nch l=60n w=390.0n m=1
MMI7 net5 A2 net25 VSS nch l=60n w=390.0n m=1
MMI3 net37 A1 VDD VDD pch l=60n w=520.0n m=1
MMI4 net33 A2 net37 VDD pch l=60n w=520.0n m=1
MMU1-M_u3 Z net25 VDD VDD pch l=60n w=520.0n m=1
MM_u11 net25 B VDD VDD pch l=60n w=520.0n m=1
MMI5 net25 A3 net33 VDD pch l=60n w=520.0n m=1
.ENDS

************************************************************************
* Library Name: tcbn65lp
* Cell Name:    OR4D1
* View Name:    schematic
************************************************************************

.SUBCKT OR4D1 A1 A2 A3 A4 VDD VSS Z
*.PININFO A1:I A2:I A3:I A4:I Z:O VDD:B VSS:B
MM_u3-M_u3 Z net5 VDD VDD pch l=60n w=520.0n m=1
MMU8-M_u1 net13 A1 VDD VDD pch l=60n w=520.0n m=1
MMU8-M_u2 net9 A2 net13 VDD pch l=60n w=520.0n m=1
MMU8-M_u7 net5 A4 net1 VDD pch l=60n w=520.0n m=1
MMU8-M_u6 net1 A3 net9 VDD pch l=60n w=520.0n m=1
MMU8-M_u3 net5 A2 VSS VSS nch l=60n w=195.00n m=1
MMU8-M_u8 net5 A4 VSS VSS nch l=60n w=195.00n m=1
MM_u3-M_u2 Z net5 VSS VSS nch l=60n w=390.0n m=1
MMU8-M_u5 net5 A3 VSS VSS nch l=60n w=195.00n m=1
MMU8-M_u4 net5 A1 VSS VSS nch l=60n w=195.00n m=1
.ENDS

************************************************************************
* Library Name: tcbn65lp
* Cell Name:    IND2D2
* View Name:    schematic
************************************************************************

.SUBCKT IND2D2 A1 B1 VDD VSS ZN
*.PININFO A1:I B1:I ZN:O VDD:B VSS:B
MMI3 VDD net11 ZN VDD pch l=60n w=1.04u m=1
MM_u16 VDD B1 ZN VDD pch l=60n w=1.04u m=1
MMI9-M_u3 net11 A1 VDD VDD pch l=60n w=520.0n m=1
MMI9-M_u2 net11 A1 VSS VSS nch l=60n w=390.0n m=1
MMI4 net20 B1 VSS VSS nch l=60n w=390.0n m=1
MMI11 net21 B1 VSS VSS nch l=60n w=390.0n m=1
MMI12 ZN net11 net20 VSS nch l=60n w=390.0n m=1
MMI10 ZN net11 net21 VSS nch l=60n w=390.0n m=1
.ENDS

************************************************************************
* Library Name: tcbn65lp
* Cell Name:    FA1D1
* View Name:    schematic
************************************************************************

.SUBCKT FA1D1 A B CI CO S VDD VSS
*.PININFO A:I B:I CI:I CO:O S:O VDD:B VSS:B
MMU26_1-M_u2 net123 CI VSS VSS nch l=60n w=390.0n m=1
MMU1_0-M_u2 net9 A VSS VSS nch l=60n w=390.0n m=1
MMI15-M_u3 net125 net72 net96 VSS nch l=60n w=320.0n m=1
MMI12_0-M_u2 net109 net9 VSS VSS nch l=60n w=390.0n m=1
MMI19-M_u3 net123 net72 net7 VSS nch l=60n w=320.0n m=1
MMI21-M_u3 net9 B net72 VSS nch l=60n w=210.0n m=1
MMI18-M_u3 net123 net33 net96 VSS nch l=60n w=170.0n m=1
MMI16-M_u2 net125 net123 VSS VSS nch l=60n w=265.00n m=1
MMI17-M_u2 net33 net72 VSS VSS nch l=60n w=390.0n m=1
MMI13-M_u3 net109 net81 net72 VSS nch l=60n w=320.0n m=1
MMU26_0-M_u2 net123 CI VSS VSS nch l=60n w=390.0n m=1
MMI12_1-M_u2 net109 net9 VSS VSS nch l=60n w=390.0n m=1
MMU3-M_u2 net81 B VSS VSS nch l=60n w=390.0n m=1
MMU18-M_u2 S net96 VSS VSS nch l=60n w=390.0n m=1
MMU1_1-M_u2 net9 A VSS VSS nch l=60n w=390.0n m=1
MMU28-M_u2 CO net7 VSS VSS nch l=60n w=390.0n m=1
MMI20-M_u3 net81 net33 net7 VSS nch l=60n w=200n m=1
MMI17-M_u3 net33 net72 VDD VDD pch l=60n w=490.0n m=1
MMU18-M_u3 S net96 VDD VDD pch l=60n w=520.0n m=1
MMI15-M_u2 net125 net33 net96 VDD pch l=60n w=450.0n m=1
MMI16-M_u3 net125 net123 VDD VDD pch l=60n w=520.0n m=1
MMU1_0-M_u3 net9 A VDD VDD pch l=60n w=520.0n m=1
MMU28-M_u3 CO net7 VDD VDD pch l=60n w=520.0n m=1
MMI13-M_u2 net109 B net72 VDD pch l=60n w=410.0n m=1
MMU26_1-M_u3 net123 CI VDD VDD pch l=60n w=520.0n m=1
MMU1_1-M_u3 net9 A VDD VDD pch l=60n w=520.0n m=1
MMU26_0-M_u3 net123 CI VDD VDD pch l=60n w=520.0n m=1
MMI18-M_u2 net123 net72 net96 VDD pch l=60n w=260.0n m=1
MMI12_1-M_u3 net109 net9 VDD VDD pch l=60n w=520.0n m=1
MMI12_0-M_u3 net109 net9 VDD VDD pch l=60n w=520.0n m=1
MMI20-M_u2 net81 net72 net7 VDD pch l=60n w=380.0n m=1
MMU3-M_u3 net81 B VDD VDD pch l=60n w=490.0n m=1
MMI19-M_u2 net123 net33 net7 VDD pch l=60n w=450.0n m=1
MMI21-M_u2 net9 net81 net72 VDD pch l=60n w=305.00n m=1
.ENDS

************************************************************************
* Library Name: tcbn65lp
* Cell Name:    INR2D1
* View Name:    schematic
************************************************************************

.SUBCKT INR2D1 A1 B1 VDD VSS ZN
*.PININFO A1:I B1:I ZN:O VDD:B VSS:B
MMU1-M_u3 ZN net11 VSS VSS nch l=60n w=390.0n m=1
MMU1-M_u4 ZN B1 VSS VSS nch l=60n w=390.0n m=1
MMU6-M_u2 net11 A1 VSS VSS nch l=60n w=195.00n m=1
MMU6-M_u3 net11 A1 VDD VDD pch l=60n w=260.0n m=1
MMU1-M_u2 ZN B1 net20 VDD pch l=60n w=520.0n m=1
MMU1-M_u1 net20 net11 VDD VDD pch l=60n w=520.0n m=1
.ENDS

************************************************************************
* Library Name: tcbn65lp
* Cell Name:    CKND2D2
* View Name:    schematic
************************************************************************

.SUBCKT CKND2D2 A1 A2 VDD VSS ZN
*.PININFO A1:I A2:I ZN:O VDD:B VSS:B
MMI0_0-M_u1 ZN A1 VDD VDD pch l=60n w=390.0n m=1
MMI0_1-M_u2 ZN A2 VDD VDD pch l=60n w=390.0n m=1
MMI0_0-M_u2 ZN A2 VDD VDD pch l=60n w=390.0n m=1
MMI0_1-M_u1 ZN A1 VDD VDD pch l=60n w=390.0n m=1
MMI0_1-M_u4 net24 A2 VSS VSS nch l=60n w=390.0n m=1
MMI0_0-M_u3 ZN A1 net17 VSS nch l=60n w=390.0n m=1
MMI0_1-M_u3 ZN A1 net24 VSS nch l=60n w=390.0n m=1
MMI0_0-M_u4 net17 A2 VSS VSS nch l=60n w=390.0n m=1
.ENDS

************************************************************************
* Library Name: tcbn65lp
* Cell Name:    AOI22D1
* View Name:    schematic
************************************************************************

.SUBCKT AOI22D1 A1 A2 B1 B2 VDD VSS ZN
*.PININFO A1:I A2:I B1:I B2:I ZN:O VDD:B VSS:B
MMI3 ZN B1 net1 VSS nch l=60n w=390.0n m=1
MMI9 ZN A1 net5 VSS nch l=60n w=390.0n m=1
MMI10 net5 A2 VSS VSS nch l=60n w=390.0n m=1
MMI8 net1 B2 VSS VSS nch l=60n w=390.0n m=1
MM_u3 net20 A2 ZN VDD pch l=60n w=520.0n m=1
MM_u5 VDD B2 net20 VDD pch l=60n w=520.0n m=1
MM_u2 net20 A1 ZN VDD pch l=60n w=520.0n m=1
MM_u4 VDD B1 net20 VDD pch l=60n w=520.0n m=1
.ENDS

************************************************************************
* Library Name: tcbn65lp
* Cell Name:    OAI221D1
* View Name:    schematic
************************************************************************

.SUBCKT OAI221D1 A1 A2 B1 B2 C VDD VSS ZN
*.PININFO A1:I A2:I B1:I B2:I C:I ZN:O VDD:B VSS:B
MM_u3 ZN A2 net20 VSS nch l=60n w=390.0n m=1
MM_u5 net20 B2 net5 VSS nch l=60n w=390.0n m=1
MM_u4 net20 B1 net5 VSS nch l=60n w=390.0n m=1
MMU23 net5 C VSS VSS nch l=60n w=390.0n m=1
MM_u2 ZN A1 net20 VSS nch l=60n w=390.0n m=1
MMI1 net24 B1 VDD VDD pch l=60n w=520.0n m=1
MMI3 net33 A2 VDD VDD pch l=60n w=520.0n m=1
MMI4 ZN A1 net33 VDD pch l=60n w=520.0n m=1
MMU24 ZN C VDD VDD pch l=60n w=520.0n m=1
MMI2 ZN B2 net24 VDD pch l=60n w=520.0n m=1
.ENDS

************************************************************************
* Library Name: tcbn65lp
* Cell Name:    OAI22D1
* View Name:    schematic
************************************************************************

.SUBCKT OAI22D1 A1 A2 B1 B2 VDD VSS ZN
*.PININFO A1:I A2:I B1:I B2:I ZN:O VDD:B VSS:B
MM_u3 ZN A1 net5 VSS nch l=60n w=390.0n m=1
MM_u5 net5 B1 VSS VSS nch l=60n w=390.0n m=1
MM_u4 net5 B2 VSS VSS nch l=60n w=390.0n m=1
MM_u2 ZN A2 net5 VSS nch l=60n w=390.0n m=1
MMI1 ZN B1 net32 VDD pch l=60n w=520.0n m=1
MMI3 ZN A1 net17 VDD pch l=60n w=520.0n m=1
MMU24 net32 B2 VDD VDD pch l=60n w=520.0n m=1
MMI2 net17 A2 VDD VDD pch l=60n w=520.0n m=1
.ENDS

************************************************************************
* Library Name: tcbn65lp
* Cell Name:    INR4D1
* View Name:    schematic
************************************************************************

.SUBCKT INR4D1 A1 B1 B2 B3 VDD VSS ZN
*.PININFO A1:I B1:I B2:I B3:I ZN:O VDD:B VSS:B
MMI27 net33 B2 net5 VDD pch l=60n w=520.0n m=1
MMI29 ZN B3 net25 VDD pch l=60n w=520.0n m=1
MMI30 net25 B2 net9 VDD pch l=60n w=520.0n m=1
MMI28 ZN B3 net33 VDD pch l=60n w=520.0n m=1
MMI32 net17 net13 VDD VDD pch l=60n w=520.0n m=1
MMI6-M_u3 net13 A1 VDD VDD pch l=60n w=260.0n m=1
MMI31 net9 B1 net17 VDD pch l=60n w=520.0n m=1
MMI26 net5 B1 net1 VDD pch l=60n w=520.0n m=1
MMI7 net1 net13 VDD VDD pch l=60n w=520.0n m=1
MMI1 ZN B2 VSS VSS nch l=60n w=390.0n m=1
MMI3 ZN net13 VSS VSS nch l=60n w=230.0n m=1
MMI2 ZN B1 VSS VSS nch l=60n w=390.0n m=1
MMI5 ZN B3 VSS VSS nch l=60n w=230.0n m=1
MMI6-M_u2 net13 A1 VSS VSS nch l=60n w=195.00n m=1
.ENDS

************************************************************************
* Library Name: tcbn65lp
* Cell Name:    IND3D1
* View Name:    schematic
************************************************************************

.SUBCKT IND3D1 A1 B1 B2 VDD VSS ZN
*.PININFO A1:I B1:I B2:I ZN:O VDD:B VSS:B
MMI4 VDD net19 ZN VDD pch l=60n w=520.0n m=1
MMI11 VDD B2 ZN VDD pch l=60n w=520.0n m=1
MM_u16 VDD B1 ZN VDD pch l=60n w=520.0n m=1
MMI5-M_u3 net19 A1 VDD VDD pch l=60n w=260.0n m=1
MMI5-M_u2 net19 A1 VSS VSS nch l=60n w=195.00n m=1
MMI6 net25 B1 net17 VSS nch l=60n w=390.0n m=1
MMI12 ZN B2 net25 VSS nch l=60n w=390.0n m=1
MMI7 net17 net19 VSS VSS nch l=60n w=390.0n m=1
.ENDS

************************************************************************
* Library Name: tcbn65lp
* Cell Name:    IND4D1
* View Name:    schematic
************************************************************************

.SUBCKT IND4D1 A1 B1 B2 B3 VDD VSS ZN
*.PININFO A1:I B1:I B2:I B3:I ZN:O VDD:B VSS:B
MMI6 ZN B1 VDD VDD pch l=60n w=520.0n m=1
MMI18 ZN B3 VDD VDD pch l=60n w=520.0n m=1
MMI5 ZN B2 VDD VDD pch l=60n w=520.0n m=1
MMI12-M_u3 net5 A1 VDD VDD pch l=60n w=260.0n m=1
MMI7 ZN net5 VDD VDD pch l=60n w=520.0n m=1
MMI12-M_u2 net5 A1 VSS VSS nch l=60n w=195.00n m=1
MMU53 ZN net5 net25 VSS nch l=60n w=390.0n m=1
MMI10 net24 B3 VSS VSS nch l=60n w=390.0n m=1
MMI8 net25 B1 net28 VSS nch l=60n w=390.0n m=1
MMI9 net28 B2 net24 VSS nch l=60n w=390.0n m=1
.ENDS

************************************************************************
* Library Name: tcbn65lp
* Cell Name:    MAOI22D1
* View Name:    schematic
************************************************************************

.SUBCKT MAOI22D1 A1 A2 B1 B2 VDD VSS ZN
*.PININFO A1:I A2:I B1:I B2:I ZN:O VDD:B VSS:B
MMI3 ZN A1 net20 VSS nch l=60n w=390.0n m=1
MMI11 net9 B2 VSS VSS nch l=60n w=390.0n m=1
MMI12 net9 B1 VSS VSS nch l=60n w=390.0n m=1
MMI10 ZN net9 VSS VSS nch l=60n w=390.0n m=1
MMI9 net20 A2 VSS VSS nch l=60n w=390.0n m=1
MMI13 net24 net9 VDD VDD pch l=60n w=520.0n m=1
MMI1 net33 B2 VDD VDD pch l=60n w=520.0n m=1
MMI6 ZN A2 net24 VDD pch l=60n w=520.0n m=1
MMI5 net9 B1 net33 VDD pch l=60n w=520.0n m=1
MMI7 ZN A1 net24 VDD pch l=60n w=520.0n m=1
.ENDS

************************************************************************
* Library Name: tcbn65lp
* Cell Name:    AOI32D1
* View Name:    schematic
************************************************************************

.SUBCKT AOI32D1 A1 A2 A3 B1 B2 VDD VSS ZN
*.PININFO A1:I A2:I A3:I B1:I B2:I ZN:O VDD:B VSS:B
MMU18 ZN A3 net20 VDD pch l=60n w=520.0n m=1
MMU19 net20 B2 VDD VDD pch l=60n w=520.0n m=1
MMU16 ZN A2 net20 VDD pch l=60n w=520.0n m=1
MMU20 net20 B1 VDD VDD pch l=60n w=520.0n m=1
MMU17 ZN A1 net20 VDD pch l=60n w=520.0n m=1
MMI20-M_u10 ZN A1 net21 VSS nch l=60n w=390.0n m=1
MMI17-M_u10 ZN B1 net36 VSS nch l=60n w=390.0n m=1
MMI17-M_u11 net36 B2 VSS VSS nch l=60n w=390.0n m=1
MMI20-MI12 net25 A3 VSS VSS nch l=60n w=390.0n m=1
MMI20-M_u11 net21 A2 net25 VSS nch l=60n w=390.0n m=1
.ENDS

************************************************************************
* Library Name: tcbn65lp
* Cell Name:    MOAI22D1
* View Name:    schematic
************************************************************************

.SUBCKT MOAI22D1 A1 A2 B1 B2 VDD VSS ZN
*.PININFO A1:I A2:I B1:I B2:I ZN:O VDD:B VSS:B
MMU1 net37 B1 net20 VSS nch l=60n w=390.0n m=1
MMI6 net9 net37 VSS VSS nch l=60n w=390.0n m=1
MMU9 net9 A1 ZN VSS nch l=60n w=390.0n m=1
MMI5 net20 B2 VSS VSS nch l=60n w=390.0n m=1
MMU10 net9 A2 ZN VSS nch l=60n w=390.0n m=1
MMI1 net37 B1 VDD VDD pch l=60n w=520.0n m=1
MMI3 net33 A2 VDD VDD pch l=60n w=520.0n m=1
MMI4 ZN A1 net33 VDD pch l=60n w=520.0n m=1
MMI2 ZN net37 VDD VDD pch l=60n w=520.0n m=1
MMU3 net37 B2 VDD VDD pch l=60n w=520.0n m=1
.ENDS

************************************************************************
* Library Name: tcbn65lp
* Cell Name:    AOI31D1
* View Name:    schematic
************************************************************************

.SUBCKT AOI31D1 A1 A2 A3 B VDD VSS ZN
*.PININFO A1:I A2:I A3:I B:I ZN:O VDD:B VSS:B
MMU18 ZN A3 net5 VDD pch l=60n w=520.0n m=1
MMU16 ZN A2 net5 VDD pch l=60n w=520.0n m=1
MMU20 net5 B VDD VDD pch l=60n w=520.0n m=1
MMU17 ZN A1 net5 VDD pch l=60n w=520.0n m=1
MMI20-M_u10 ZN A1 net17 VSS nch l=60n w=390.0n m=1
MMU14 ZN B VSS VSS nch l=60n w=390.0n m=1
MMI20-MI12 net20 A3 VSS VSS nch l=60n w=390.0n m=1
MMI20-M_u11 net17 A2 net20 VSS nch l=60n w=390.0n m=1
.ENDS

************************************************************************
* Library Name: tcbn65lp
* Cell Name:    ND4D1
* View Name:    schematic
************************************************************************

.SUBCKT ND4D1 A1 A2 A3 A4 VDD VSS ZN
*.PININFO A1:I A2:I A3:I A4:I ZN:O VDD:B VSS:B
MMI3 net13 A2 net9 VSS nch l=60n w=390.0n m=1
MMI4 net9 A3 net1 VSS nch l=60n w=390.0n m=1
MMU53 ZN A1 net13 VSS nch l=60n w=390.0n m=1
MMI5 net1 A4 VSS VSS nch l=60n w=390.0n m=1
MMI1 ZN A3 VDD VDD pch l=60n w=520.0n m=1
MMI2 ZN A4 VDD VDD pch l=60n w=520.0n m=1
MMI0 ZN A2 VDD VDD pch l=60n w=520.0n m=1
MMI7 ZN A1 VDD VDD pch l=60n w=520.0n m=1
.ENDS
